/**********************************************************************/
/                         STEERING FILE FOR                            /
/                            STBTEL V5.5                               /
/                 EXAMPLE OF TRIGRID  FILE TREATMENT                   /
/             GLOBAL MESH - BATHYMETRY IN TRIGRID FILE                 /
/  SOGREAH                                                02/16/1999   /
/**********************************************************************/
/
/
UNIVERSAL FILE                          : './grille.dat'
GEOMETRY FILE FOR TELEMAC               : './geo.slf'
BOUNDARY CONDITIONS FILE                : './geo.cli'
MESH ADDITIONAL DATA FILE               : './trian.dat'
/
MESH GENERATOR                          : TRIGRID
BOTTOM CORRECTION OF TRIGRID            : 270.
BATHYMETRY IN THE UNIVERSAL FILE        : YES
/
ELIMINATION OF BACKWARD DEPENDENCIES    : YES
OVERSTRESSED TRIANGLES CUTTING          : YES
MINIMUM DISTANCE BETWEEN TWO POINTS     : 0.
/  
&FIN
