/************************************************************************
/
/			     STEERING FILE
/                              TELEMAC2D                                      
/    
/************************************************************************
/ cas test granulométrie etendue 
/ couplage sisyphe - telemac2d
/ expérience de Guenter - 
/
/ Version 5.7
/
/ Dell 2.8 GHz Linux, compilateur pgi :   154 s JMH 09/05/2007
/ HP C3700, compilateur HP            :   213 s CV  07/05/2007
/ HP C3700, compilateur Nag           :   617 s JMH 09/05/2007
/
/ Version 5.8
/
/ Dell 2.8 GHz Linux, compilateur pgi :   153 s JMH 24/01/2008
/ HP C3700, compilateur HP            :   222 s JMH 24/01/2008
/ HP C3700, compilateur Nag           :   609 s JMH 24/01/2008
/
/ Version 5.9
/
/ Dell 2.8 GHz Linux, compilateur INtel :   ??? s
/ Dell 2.8 GHz Linux, compilateur pgi   :   ??? s CV  23/12/2008
/ HP C3700, compilateur HP              :   221 s JMH 30/12/2008
/ HP C3700, compilateur Nag             :   ??? s 
/
/ Version 6.0
/
/ Dell 2.8 GHz Linux, compilateur Intel :    87 s JMH 10/12/2009
/ HP C3700, compilateur HP              :   201 s JMH 10/12/2009 
/ HP C3700, compilateur Nag             :   536 s JMH 08/12/2009 
/
/  HP C3700, compilateur HP             :   209 s CV 02/06/2010
/ Dell 2.8 GHz Linux, compilateur Intel :    55 s CV 07/06/2010
/----------------------------------------------------------------------
/                      FILE DEFINITION
/----------------------------------------------------------------------
/
PARALLEL PROCESSORS : 0
TITLE                           = 'Guenter experiment'
FORTRAN FILE                    = t2d_guenter.f
BOUNDARY CONDITIONS FILE        = geo_guenter.cli
GEOMETRY FILE                   = geo_guenter.slf
RESULTS FILE                    = r2d_guenter.slf
REFERENCE FILE                  = f2d_guenter.slf
PREVIOUS COMPUTATION FILE       = ini_guenter.slf
SISYPHE STEERING FILE           = sys_guenter.cas
/
/----------------------------------------------------------------------
/                        GENERAL OPTIONS                              
/----------------------------------------------------------------------
/
VALIDATION = OUI
GRAPHIC PRINTOUT PERIOD         =  5000
LISTING PRINTOUT PERIOD         =  5000
VARIABLES FOR GRAPHIC PRINTOUTS = 'U,V,H,S,B,K,E,D,F,L'
MASS-BALANCE                    = YES
COMPUTATION CONTINUED           = YES
INITIAL TIME SET TO ZERO        = YES
TIME STEP                       = 0.5
NUMBER OF TIME STEPS            = 50000
/  
/----------------------------------------------------------------------
/                      BOUNDARY CONDITIONS
/----------------------------------------------------------------------
/
PRESCRIBED FLOWRATES            = 0.    ;0.056D0
PRESCRIBED ELEVATIONS           = 1.09D0;0.
/
/----------------------------------------------------------------------
/                       NUMERICAL OPTIONS
/----------------------------------------------------------------------
/
TIDAL FLATS                     = NO           
MASS-LUMPING ON H               = 0 
TYPE OF ADVECTION               = 2;2                           
SUPG OPTION                     = 1;2                                 
SOLVER                          = 7  
SOLVER OPTION                   = 3  
SOLVER ACCURACY                 = 1.E-5
/
IMPLICITATION FOR DEPTH                       = 1.0
IMPLICITATION FOR VELOCITY                    = 0.6 
MAXIMUM NUMBER OF ITERATIONS FOR SOLVER       = 100
INFORMATION ABOUT SOLVER                      = YES
MASS-BALANCE                                  = YES
CONTINUITY CORRECTION                         = NO 
TREATMENT OF THE LINEAR SYSTEM                = 1
/
DISCRETIZATIONS IN SPACE        = 11;11
MATRIX STORAGE                  = 3   
MATRIX-VECTOR PRODUCT           = 1
/
/----------------------------------------------------------------------
/                       PHYSICAL CONSTANTS
/----------------------------------------------------------------------
/
LAW OF BOTTOM FRICTION          = 3
FRICTION COEFFICIENT            = 55
TURBULENCE MODEL                = 2  
VELOCITY DIFFUSIVITY            = 1.E-6
/----------------------------------------------------------------------
/                       COUPLING AND PARALLELISM
/----------------------------------------------------------------------
COUPLING WITH  = 'INTER-SISYPHE'
COUPLING PERIOD = 10
/
&ETA
&FIN
