/
/---------------------------------------------------------------------
/ TELEMAC2D Version v6p2 14 juin 2012
/ TELEMAC 2D : TEST DECROISSANCE TRACEURS
/---------------------------------------------------------------------
/
/---------------------------------------------------------------------
/ ENTREES-SORTIES, FICHIERS
/---------------------------------------------------------------------
/
NAMES OF TRACERS                  ='Traceur 1';'Traceur 2'
RESULTS FILE              ='r2d_trdec.slf'
BOUNDARY CONDITIONS FILE ='geo_trdec.cli'
GEOMETRY FILE               ='geo_trdec.slf'
/
/---------------------------------------------------------------------
/ ENTREES-SORTIES, GENERALITES
/---------------------------------------------------------------------
/
/-------------------------------------------------------------------
/                     OPTIONS GENERALES
/-------------------------------------------------------------------
/
TITLE      ='TELEMAC 2D : TEST DECROISSANCE TRACEURS'
/
/---------------------------------------------------------------------
/ ENTREES-SORTIES, GRAPHIQUES ET LISTING
/---------------------------------------------------------------------
/
LISTING PRINTOUT PERIOD             =240
VARIABLES FOR GRAPHIC PRINTOUTS =H,S,B,T1,T2
GRAPHIC PRINTOUT PERIOD   =60
MASS-BALANCE                        =VRAI
INFORMATION ABOUT SOLVER           =VRAI
/
/---------------------------------------------------------------------
/ EQUATIONS
/---------------------------------------------------------------------
/
LAW OF BOTTOM FRICTION : 0
ADVECTION                                          =NO
DIFFUSION OF VELOCITY                              =NO
LAW OF TRACERS DEGRADATION                     =0;1
INITIAL VALUES OF TRACERS                      =100.;200.
COEFFICIENT 1 FOR LAW OF TRACERS DEGRADATION =0.0;6.0
IMPLICITATION COEFFICIENT OF TRACERS            =1.
ACCURACY FOR DIFFUSION OF TRACERS            =1.E-10
/
/---------------------------------------------------------------------
/ EQUATIONS, CONDITIONS INITIALES
/---------------------------------------------------------------------
/
INITIAL CONDITIONS ='CONSTANT ELEVATION'
INITIAL ELEVATION        =2.
/
/---------------------------------------------------------------------
/ EQUATIONS, TRACEUR
/---------------------------------------------------------------------
/
NUMBER OF TRACERS =2
/
/---------------------------------------------------------------------
/ PARAMETRES NUMERIQUES
/---------------------------------------------------------------------
/
NUMBER OF TIME STEPS =8640
TIME STEP           =10.0
/
/---------------------------------------------------------------------
/ PARAMETRES NUMERIQUES, SOLVEUR
/---------------------------------------------------------------------
/
SOLVER FOR DIFFUSION OF TRACERS =1
