/
PROCESSEURS PARALLELES : 0
/
PROFILS DE VITESSE SUR LA VERTICALE : 2;2
STOCKAGE DES MATRICES : 3
/
/  Tourne en 708 s sur HP 133 MHz (CHE43B3)
/         en 404 s sur PC 400 Mhz (Compaq Windows-NT 4)
/         en 120 s sur HP 3700    (CHP70K2)
/         en  52 s sur HP 3700    (CHP70K2)  (FINAL VERSION 5.4) 
/                                           
/         en 27 s   version 5.5  04/03/2005 (nouvelle diffusion)
/         en 23 s   version 5.5  05/07/2005
/
/         en 25 s   version 5.7  13/02/2007 (Nag:69 s Dell:17 s)
/
/         en 23 s   version 5.8  19/07/2007 (Nag:62 s Dell:16 s)
/         en 26 s   version 5.9  17/10/2008 (Nag:63 s Dell:14 s)
/
/         en 22 s   version 6.2  25/05/2012 
/
OPTION POUR L'ETAPE HYDROSTATIQUE : 2
IMPLICITATION POUR LA DIFFUSION : 2.
/
/**********************************************************************/
/
/           FICHIER DE DECLARATION DES MOTS CLES DU CODE               
/                            TELEMAC-3D                              
/
/----------------------------------------------------------------------/
/
TITRE = 'TELEMAC 3D : CANAL'
/
FICHIER DES CONDITIONS AUX LIMITES : geo_canal.cli
FICHIER DE GEOMETRIE               : geo_canal.slf
FICHIER DES FRONTIERES LIQUIDES    : t3d_canal.qsl
FICHIER DES RESULTATS 3D           : r3d_canal-t3d.slf
FICHIER DES RESULTATS 2D           : r2d_canal-t3d.slf
FICHIER DE REFERENCE               : f3d_canal.slf
FICHIER POUR SUITE 2D              : f2d_canal.slf
/
VALIDATION : OUI
/
/----------------------------------------------------------------------/
/     OPTIONS GENERALES
/----------------------------------------------------------------------/
/
SUITE 2D = OUI
NOMBRE DE PAS DE TEMPS = 1000
PERIODE POUR LES SORTIES GRAPHIQUES = 100
PERIODE POUR LES SORTIES LISTING    = 100
PAS DE TEMPS = 2.
NOMBRE DE PLANS HORIZONTAUX = 10
/


/NOMBRE DE PAS DE TEMPS = 1
/PERIODE POUR LES SORTIES GRAPHIQUES = 1
/PERIODE POUR LES SORTIES LISTING    = 1





CONDITIONS INITIALES : 'HAUTEUR CONSTANTE'
HAUTEUR INITIALE : 0.5
DEBITS IMPOSES : 0.;50.
COTES IMPOSEES : 0.5;0.
/
BANCS DECOUVRANTS = NON
/
VARIABLES POUR LES SORTIES GRAPHIQUES 2D = U,V,H,B,US
VARIABLES POUR LES SORTIES GRAPHIQUES 3D = Z,U,V,W
BILAN DE MASSE = OUI
INFORMATION SUR LE BILAN DE MASSE A CHAQUE SORTIE LISTING = OUI
/
/-----------------------
/     CONVECTION-DIFFUSION
/-----------------------
/ 
SCHEMA POUR LA CONVECTION DES VITESSES = 1
SCHEMA POUR LA CONVECTION DE LA HAUTEUR = 5
/
MODELE DE TURBULENCE HORIZONTAL = 1
/COEFFICIENT DE DIFFUSION HORIZONTAL DES VITESSES = 0.1D0
COEFFICIENT DE DIFFUSION HORIZONTAL DES VITESSES = 0.D0
/
MODELE DE TURBULENCE VERTICAL = 2
MODELE DE LONGUEUR DE MELANGE : 3
COEFFICIENT DE DIFFUSION VERTICAL DES VITESSES   = 1.D-6
/
/PRECONDITIONNEMENT POUR LA DIFFUSION DES VITESSES = 2
/SOLVEUR POUR LA DIFFUSION DES VITESSES = 7
SOLVEUR POUR LA DIFFUSION DES VITESSES = 1
PRECONDITIONNEMENT POUR LA DIFFUSION DES VITESSES = 2
/
PRECISION POUR LA DIFFUSION DES VITESSES = 1.E-6
MAXIMUM D'ITERATIONS POUR LA DIFFUSION DES VITESSES = 200
/
/----------------------------/
/     TERMES SOURCES
/----------------------------/
/
COEFFICIENT DE FROTTEMENT POUR LE FOND = 50.
LOI DE FROTTEMENT SUR LE FOND = 3
/
/----------------------------/
/     PROPAGATION
/----------------------------/
MAXIMUM D'ITERATIONS POUR LA PROPAGATION = 200
MAXIMUM D'ITERATIONS POUR LA VITESSE VERTICALE = 50
SOLVEUR POUR LA VITESSE VERTICALE=7
SOLVEUR POUR LA PROPAGATION=7
PRECISION POUR LA VITESSE VERTICALE = 1.E-6
PRECISION POUR LA PROPAGATION = 1.E-6
/
IMPLICITATION POUR LA HAUTEUR = 0.6 
IMPLICITATION POUR LES VITESSES = 0.6 
/
/ EQUATION D'ONDE + GRADIENT CONJUGUE
SOLVEUR POUR LA PROPAGATION : 1
PRECONDITIONNEMENT POUR LA PROPAGATION : 2
/  FIN DES REGLAGES JMH
/&ETA
&FIN
