/
/  Stratification dans un canal, modele k-epsilon
/  Pas de comparaison avec l'experience, mais la stratification
/  se maintient a cause du terme d'amortissement du
/  au nombre de Richardson.
/  Pas de turbulence a l'entree. On voit s'etablir la turbulence
/  a partir du fond.
/
/  1254 s sur HP 785/C3700  5.8  16/01/2008 (Nag:3013 s,Dell:792 s)
/
/  1191 s sur HP 785/C3700  5.9  17/10/2008 (Nag:???? s,Dell:647 s)
/
/**********************************************************************/
/
/           FICHIER DE DECLARATION DES MOTS CLES DU CODE               
/                            TELEMAC-3D                              
/
TITRE = 'TELEMAC 3D : CANAL'
/
FICHIER FORTRAN                    : t3d_stratification.f
FICHIER DES CONDITIONS AUX LIMITES : geo_stratification.cli
FICHIER DE GEOMETRIE               : geo_stratification.slf
/
FICHIER DES RESULTATS 3D           : r3d_stratification.slf
FICHIER DES RESULTATS 2D           : r2d_stratification.slf
FICHIER DE REFERENCE               : f3d_stratification.slf
/
VALIDATION : OUI
/
/----------------------------------------------------------------------/
/     OPTIONS GENERALES
/----------------------------------------------------------------------/
/
 NOMBRE DE PAS DE TEMPS = 1000   PAS DE TEMPS = 2.
 PERIODE POUR LES SORTIES GRAPHIQUES = 1000
 PERIODE POUR LES SORTIES LISTING    = 25
 NOMBRE DE PLANS HORIZONTAUX = 21
/
CONDITIONS INITIALES : 'HAUTEUR CONSTANTE'   HAUTEUR INITIALE : 10.
DEBITS IMPOSES : 0.;1000.  
/ 
COTES IMPOSEES : 9.981054;0.
/
BANCS DECOUVRANTS = NON
/
VARIABLES POUR LES SORTIES GRAPHIQUES 2D = U,V,H,B,S
VARIABLES POUR LES SORTIES GRAPHIQUES 3D = Z,U,V,W,TA1,NUZ,NAZ1
BILAN DE MASSE = OUI
INFORMATION SUR LE BILAN DE MASSE A CHAQUE SORTIE LISTING = OUI
/
/-------------------------
/  CONVECTION-DIFFUSION
/-------------------------
/ 
SCHEMA POUR LA CONVECTION DES VITESSES  : 4
SCHEMA POUR LA CONVECTION DES TRACEURS  : 4
SCHEMA POUR LA CONVECTION DU K-EPSILON  : 4
/
 MODELE DE TURBULENCE HORIZONTAL = 1
 COEFFICIENT DE DIFFUSION HORIZONTAL DES VITESSES = 0.1D0
/ K-EPSILON
 MODELE DE TURBULENCE VERTICAL = 3
 COEFFICIENT DE DIFFUSION VERTICAL DES VITESSES = 1.D-6
/
PRECONDITIONNEMENT POUR LA DIFFUSION DES VITESSES = 34
SOLVEUR POUR LA DIFFUSION DES VITESSES = 1
/
/----------------------------/
/     TERMES SOURCES
/----------------------------/
/
 COEFFICIENT DE FROTTEMENT POUR LE FOND = 70.
 LOI DE FROTTEMENT SUR LE FOND = 3
/
/----------------------------/
/     PROPAGATION
/----------------------------/
MAXIMUM D'ITERATIONS POUR LA PROPAGATION = 500
MAXIMUM D'ITERATIONS POUR LA VITESSE VERTICALE = 50
MAXIMUM D'ITERATIONS POUR LA DIFFUSION DES VITESSES = 200
SOLVEUR POUR LA VITESSE VERTICALE = 7
PRECISION POUR LA DIFFUSION DES VITESSES =1.E-6
PRECISION POUR LA VITESSE VERTICALE = 1.E-6
PRECISION POUR LA PROPAGATION = 1.E-6
PRECISION POUR LA DIFFUSION DES TRACEURS : 1.E-10
/
IMPLICITATION POUR LA HAUTEUR = 0.6 
IMPLICITATION POUR LA HAUTEUR = 1. 
IMPLICITATION POUR LES VITESSES = 0.6
IMPLICITATION POUR LES VITESSES = 1.  
SOLVEUR POUR LA PROPAGATION : 1
PRECONDITIONNEMENT POUR LA PROPAGATION : 2
/
/----------------------------/
/          SEDIMENT
/----------------------------/
/
NOMBRE DE TRACEURS : 1  
NOMS DES TRACEURS : 'SALINITE                        '
VALEURS INITIALES DES TRACEURS : 38. 
PROFILS DES TRACEURS SUR LA VERTICALE : 1;1
VALEURS IMPOSEES DES TRACEURS : 38.;38.
LOI DE DENSITE : 2
/COEFFICIENT DE DILATATION BETA POUR LES TRACEURS : -1.65
/VALEUR DE REFERENCE DES TRACEURS : 0.
/
COEFFICIENT DE DIFFUSION VERTICAL DES TRACEURS = 1.E-6
PRECONDITIONNEMENT POUR LA DIFFUSION DES TRACEURS : 34
PRECONDITIONNEMENT POUR LA DIFFUSION DU K-EPSILON : 34
/
LOI DE FROTTEMENT SUR LES PAROIS LATERALES : 0
COEFFICIENT DE FROTTEMENT POUR LES PAROIS LATERALES : 1.
/
MASS-LUMPING POUR LA HAUTEUR   : 1.
MASS-LUMPING POUR LES VITESSES : 1.
MASS-LUMPING POUR LA DIFFUSION : 1.
/  1 : CLASSIQUE    2 : EQUATION D'ONDE
 OPTION POUR L'ETAPE HYDROSTATIQUE : 2
 IMPLICITATION POUR LA DIFFUSION : 2.
/
STOCKAGE DES MATRICES : 3
/
&FIN
