STOCKAGE DES MATRICES : 3
/
/  HP C3700 : 180 s   version 5.3
/  HP C3700 : 153 s   version 5.4
/  HP C3700 :  92 s   version 5.5 16/12/2004
/  HP C3700 :  86 s   version 5.5 04/03/2005 (nouvelle diffusion)
/  HP C3700 :  71 s   version 5.5 24/08/2005
/  HP C3700 :  61 s   version 5.7 07/02/2007 (Nag:143s,Dell:47s)
/  HP C3700 :  60 s   version 5.8 19/12/2007 (Nag:154s,Dell:45s)
/  HP C3700 :  65 s   version 5.8 17/07/2008 (Nag:159s,Dell:??s)
/  HP C3700 :  71 s   version 5.9 17/10/2008 (Nag:145s,Dell:38s)
/
FICHIER DES CONDITIONS AUX LIMITES : geo_source_v1p0.cli
FICHIER DE GEOMETRIE               : geo_source_v1p0.slf
/
/
FICHIER DES RESULTATS 3D           : r3d_source_v1p0.slf
FICHIER DES RESULTATS 2D           : r2d_source_v1p0.slf
FICHIER DE REFERENCE               : f3d_source_v1p0.slf
VALIDATION : OUI
/
NOMBRE DE PLANS HORIZONTAUX : 5
/LONGUEUR DU VECTEUR : 1             
/----------------------------------------------------------------------/ 
/                     OPTIONS GENERALES                                  
/----------------------------------------------------------------------/ 
TITRE = 'TELEMAC 3D : TEST POUR SOURCE de MASSE SUR BASSIN FERME'              
SUITE DE CALCUL : NON                                                    
VARIABLES POUR LES SORTIES GRAPHIQUES 2D : 'U,V,H,B'
VARIABLES POUR LES SORTIES GRAPHIQUES 3D : 'Z,U,V,W'  
PAS DE TEMPS = 0.5 
NOMBRE DE PAS DE TEMPS = 2000
PERIODE POUR LES SORTIES GRAPHIQUES : 50
PERIODE POUR LES SORTIES LISTING    : 50
/----------------------------------------------------------------------/ 
/     SOURCES                                                        
/----------------------------------------------------------------------/ 
ABSCISSES DES SOURCES : -22.0;20.0
ORDONNEES DES SOURCES :   2.0; 2.0
COTES DES SOURCES     :  -0.5;-0.5 
DEBITS DES SOURCES    :   0.5; 0.5 
/----------------------------------------------------------------------/ 
/     PROPAGATION                                                        
/----------------------------------------------------------------------/ 
SCHEMA POUR LA DIFFUSION DES VITESSES = 1
PRECONDITIONNEMENT POUR LA DIFFUSION DES VITESSES : 2
MODELE DE TURBULENCE VERTICAL : 1
SOLVEUR POUR LA PROPAGATION : 7
MAXIMUM D'ITERATIONS POUR LA PROPAGATION : 100 
PRECISION POUR LA PROPAGATION = 1.E-6  
IMPLICITATION POUR LA HAUTEUR = 0.6 
IMPLICITATION POUR LES VITESSES = 0.6  
PRECONDITIONNEMENT POUR LA PROPAGATION : 2    
ORDRE DU TIR INITIAL POUR LA HAUTEUR : 1                
/----------------------------------------------------------------------/
BILAN DE MASSE : OUI
INFORMATION SUR LE BILAN DE MASSE A CHAQUE SORTIE LISTING : OUI
SCHEMA POUR LA CONVECTION DES VITESSES = 5
SCHEMA POUR LA CONVECTION DE LA HAUTEUR = 5                
/
BANCS DECOUVRANTS : NON                                                  
&ETA                                                                     
&FIN
 
