/----------------------------------------------------------------------
/                Exemple d'initiation - Calcul numero 1
/                 Calcul de stabilisation 1ere PHASE 
/                      Debit de 500 m3/sec
/----------------------------------------------------------------------
/
/  5.8
/
/  HP C3700 compilateur HP : 29 s  17/04/2007
/  HP C3700 compilateur Nag: 76 s  20/12/2007
/  Dell compilateur pgi    : 25 s  19/12/2007
/
/  5.9
/
/  HP C3700 compilateur HP : 32 s  15/10/2008
/  HP C3700 compilateur Nag: 79 s  16/10/2008
/  Dell compilateur pgi    : 25 s  15/10/2008
/
/  6.0
/
/  HP C3700 compilateur HP : 31 s  24/11/2009
/  HP C3700 compilateur Nag: 83 s  26/11/2009
/  Dell compilateur Intel  : 18 s  26/11/2009
/
/----------------------------------------------------------------------
/                      ENVIRONNEMENT INFORMATIQUE
/----------------------------------------------------------------------
/
FICHIER DES CONDITIONS AUX LIMITES          : geo_flotteurs.cli
FICHIER DE GEOMETRIE                        : geo_flotteurs.slf
FICHIER DES FRONTIERES LIQUIDES             : t2d_flotteurs.lqd
FICHIER DES RESULTATS                       : r2d_flotteurs_v1p0.slf
/
/----------------------------------------------------------------------
/                        OPTIONS GENERALES                              
/----------------------------------------------------------------------
/                                                                       
TITRE : 'TELEMAC-2D - Initiation - Calcul numero 1' 
/               
VARIABLES POUR LES SORTIES GRAPHIQUES             : 'U,V,S,B,H,Q,M,F'
VARIABLES A IMPRIMER                              : ''
PAS DE TEMPS                                      : 5. 
DUREE DU CALCUL                                   : 10800.
PERIODE POUR LES SORTIES GRAPHIQUES               : 24
PERIODE DE SORTIE LISTING                         : 100
/
/----------------------------------------------------------------------
/                    CONDITIONS INITIALES
/----------------------------------------------------------------------
/
CONDITIONS INITIALES                              :  'COTE CONSTANTE'  
COTE INITIALE                                     :   265. 
/ 
/----------------------------------------------------------------------
/                    CONDITIONS AUX LIMITES
/----------------------------------------------------------------------
/
LOI DE FROTTEMENT SUR LE FOND                     :    3    
COEFFICIENT DE FROTTEMENT                         :   55. 
COTES IMPOSEES                                    :  265.;0     
DEBITS IMPOSES                                    :  0;500. / voir aussi liquide.tx
PROFILS DE VITESSE                                : 1 ; 3
/      
/----------------------------------------------------------------------
/                       OPTIONS NUMERIQUES
/----------------------------------------------------------------------
/
BANCS DECOUVRANTS                                 : NON
MODELE DE TURBULENCE                              : 1                    
BILAN DE MASSE                                    : OUI
PRECISION DU SOLVEUR                              : 1.E-4 
FORME DE LA CONVECTION                            : 1;5
COEFFICIENT DE DIFFUSION DES VITESSES             : 1.E-2
SOLVEUR                                           : 7
OPTION DU SOLVEUR                                 : 3
MASS-LUMPING SUR H                                : 1.
MASS-LUMPING SUR LA VITESSE                       : 1.
STOCKAGE DES MATRICES                             : 3
TRAITEMENT DU SYSTEME LINEAIRE                    : 2
/
&FIN                                                              
