/DEBUGGER : 1
PROCESSEURS PARALLELES : 2
/FORMAT DU FICHIER DE RESULTATS : 'MED     '
/
/  sur réseau HP C3700 : 19 s  5.5 22/11/2004
/  sur DELL 2.8 MHz sous Linux 2 processeurs : 6 s  5.6 09/11/2005
/
/  sur réseau HP C3700 : 14 s  5.7 06/02/2007
/  sur DELL 2.8 MHz sous Linux 2 processeurs : 4 s  5.7 19/04/2007
/
/  sur réseau HP C3700                       : 8 s  5.8 13/11/2007
/  sur DELL 2.8 MHz sous Linux 2 processeurs : 4 s  5.8 19/12/2007
/
/  sur HP C3700 2 procs dans 1               : 9 s  5.9 29/01/2009
/  sur DELL 2.8 MHz sous Linux 2 processeurs : 3 s  5.9 30/01/2008 (Intel)
/
/  sur HP C3700 2 procs dans 1               : 8 s  6.0 24/11/2009
/  sur DELL 2.8 MHz sous Linux 2 processeurs : 3 s  6.0 26/11/2009
/
EQUATIONS : 'SAINT-VENANT EF'
/  
/
FICHIER FORTRAN                    : t2d_gouttedo.f
FICHIER DES CONDITIONS AUX LIMITES : geo_gouttedo.cli
FICHIER DE GEOMETRIE               : geo_gouttedo.slf
FICHIER DE REFERENCE               : f2d_gouttedo.slf
VALIDATION                         : OUI
FICHIER DES RESULTATS              : r2d_gouttedo_v2p0.slf
/
/----------------------------------------------------------------------/
/                     OPTIONS GENERALES
/----------------------------------------------------------------------/
TITRE = 'TELEMAC 2D : GOUTTE D''EAU DANS UN BASSIN$'
SUITE DE CALCUL : NON
VARIABLES POUR LES SORTIES GRAPHIQUES : 'U,V,H,T'
VARIABLES A IMPRIMER : ''
PAS DE TEMPS = 0.04    NOMBRE DE PAS DE TEMPS = 100
PERIODE POUR LES SORTIES GRAPHIQUES : 5  PERIODE DE SORTIE LISTING =10
LOI DE FROTTEMENT SUR LE FOND : 3    COEFFICIENT DE FROTTEMENT = 40.
/----------------------------------------------------------------------/
/     PROPAGATION
/----------------------------------------------------------------------/
MODELE DE TURBULENCE : 1 COEFFICIENT DE DIFFUSION DES VITESSES = 0.D0
SOLVEUR : 7     OPTION DU SOLVEUR : 3
MAXIMUM D'ITERATIONS POUR LE SOLVEUR : 100 PRECISION DU SOLVEUR = 1.E-4
IMPLICITATION POUR LA HAUTEUR = 0.6 IMPLICITATION POUR LA VITESSE = 0.6
PRECONDITIONNEMENT : 2    ORDRE DU TIR INITIAL POUR H : 1
/---------------------------------------------------------------/
BILAN DE MASSE : OUI
CONDITIONS INITIALES : PARTICULIERES
FORME DE LA CONVECTION   : 2;5
OPTION DE SUPG           : 2;2
DISCRETISATIONS EN ESPACE: 11;11
STOCKAGE DES MATRICES : 3       PRODUIT MATRICE-VECTEUR : 1
/----------------------------------------------------------------------/
DATE DE L'ORIGINE DES TEMPS  : 1997; 2;21
HEURE DE L'ORIGINE DES TEMPS :   10;21;30
/&ETA

