/**********************************************************************/
/                         STEERING FILE FOR                            /
/                            STBTEL V5.5                               /
/                  EXAMPLE OF SELAFIN FILE TREATMENT                   /
/                 WITHOUT ELIMINATION OF DRY ELEMENTS                  /
/  SOGREAH                                                02/16/1999   /
/**********************************************************************/
/
UNIVERSAL FILE                          : './hydro'
GEOMETRY FILE FOR TELEMAC               : './geo.slf'
BOUNDARY CONDITIONS FILE                : './geo.cli'
/
MESH GENERATOR                          : SELAFIN
/
ELIMINATION OF BACKWARD DEPENDENCIES    : NO
OVERSTRESSED TRIANGLES CUTTING          : YES
MINIMUM DISTANCE BETWEEN TWO POINTS     : 0.
/
DRY ELEMENTS ELIMINATION                : YES
PARTIALLY DRY ELEMENTS ELIMINATION      : YES
DRY LIMIT                               : 0.2
STORAGE OF ALL TIME STEPS               : NO
&FIN
