/**********************************************************************/
/                         STEERING FILE FOR                            /
/                            STBTEL V5.5                               /
/                 EXAMPLE OF TRIGRID  FILE TREATMENT                   /
/             GLOBAL MESH - BATHYMETRY IN TRIGRID FILE                 /
/                 MESH EXTRACTION WITHOUT PROJECTION                   /
/  SOGREAH                                                02/16/1999   /
/**********************************************************************/
/
/
UNIVERSAL FILE                          : './grille.dat'
GEOMETRY FILE FOR TELEMAC               : './geo2.slf'
BOUNDARY CONDITIONS FILE                : './geo2.cli'
MESH ADDITIONAL DATA FILE               : './trian.dat'
/
MESH GENERATOR                          : TRIGRID
BOTTOM CORRECTION OF TRIGRID            : 270.
BATHYMETRY IN THE UNIVERSAL FILE        : YES
/
ELIMINATION OF BACKWARD DEPENDENCIES    : NO
OVERSTRESSED TRIANGLES CUTTING          : YES
MINIMUM DISTANCE BETWEEN TWO POINTS     : 0.
/  
NUMBER OF VERTICES OF THE POLYGON TO EXTRACT THE MESH : 5
ABSCISSAE OF THE VERTICES OF THE POLYGON TO EXTRACT THE MESH :
  1140.;1170.;1060.;955.;1000.
ORDINATES OF THE VERTICES OF THE POLYGON TO EXTRACT THE MESH :
  365.;460.;555.;455.;375.
PROJECTION AFTER EXTRACTION : NO
&FIN
