/**********************************************************************/
/
/           FICHIER DE DECLARATION DES MOTS CLES DU CODE               /
/                            POSTEL 3D                                 /
/
/**********************************************************************/
/
/
FICHIER DE GEOMETRIE     : geo_cooper.slf
FICHIER DES RESULTATS 3D       : r3d_cooper.slf
NUMERO DE VERSION = V5P7
NUMERO DE VERSION DE TELEMAC-3D = V5P7
/
FICHIER DES COUPES HORIZONTALES    : Hlong
FICHIER DES COUPES VERTICALES      : Vlong
/
NOMBRE DE COUPES HORIZONTALES : 0
NOMBRE DE COUPES VERTICALES   : 1
/
NUMERO DU PREMIER ENREGISTREMENT POUR LES COUPES : 1
PERIODE DE SORTIE DES COUPES : 1	
/
PLAN DE REFERENCE POUR CHAQUE COUPE HORIZONTALE : 1;6
HAUTEUR PAR RAPPORT AU PLAN DE REFERENCE : 0.;0.
/
ABSCISSES DES SOMMETS DE LA COUPE VERTICALE 1 : 
0.;4000.
ORDONNEES DES SOMMETS DE LA COUPE VERTICALE 1 : 
2000.;2000.
DISTORSION ENTRE VERTICALE ET HORIZONTALE   : 50.
/
/&ETA
&FIN
