/
/ REFINEMENT OF MESH FILE USING STBTEL
/
/
/ INPUT FILE INFORMATION
/
UNIVERSAL FILE : 'geo_estimation.slf'
BOUNDARY UNIVERSAL FILE : 'geo_estimation.cli'
/
MESH GENERATOR : 'SELAFIN'
CUTTING ELEMENTS IN FOUR : YES
/
/ OUTPUT FILE INFORMATION
/
GEOMETRY FILE FOR TELEMAC : 'geox4.slf'
BOUNDARY CONDITIONS FILE : 'geox4.cli'
