PROCESSEURS PARALLELES : 8
/
/  Version 6.2
/
/  833 s sur HP C3700            30/12/2011 
/   28 s sur HP Linux (8 procs)  01/06/2012
/
/**********************************************************************/
/
TITRE = 'TELEMAC 3D : TEST OF TETRAHEDRA WITH SMASHED ELEMENTS'
/
ELEMENT : 'TETRAEDRE'
/
FICHIER FORTRAN                    : t3d_tetra.f
FICHIER DES CONDITIONS AUX LIMITES : geo_tetra.cli
FICHIER DES FRONTIERES LIQUIDES    : t3d_tetra.qsl
FICHIER DE GEOMETRIE               : geo_tetra.slf
FICHIER DES RESULTATS 3D           : r3d_tetra.slf
FICHIER DES RESULTATS 2D           : r2d_tetra.slf
FICHIER DE REFERENCE               : f3d_tetra.slf   VALIDATION : OUI
/
/----------------------------------------------------------------------/
/     OPTIONS GENERALES
/----------------------------------------------------------------------/
/
NOMBRE DE PAS DE TEMPS = 1000
PERIODE POUR LES SORTIES GRAPHIQUES = 500
PERIODE POUR LES SORTIES LISTING    = 100
PAS DE TEMPS = 0.04
NOMBRE DE PLANS HORIZONTAUX = 10
/
/NOMBRE DE PAS DE TEMPS = 3 PERIODE POUR LES SORTIES LISTING = 1
/
CONDITIONS INITIALES : 'COTE CONSTANTE'
COTE INITIALE : 1.8
DEBITS IMPOSES : 0.;8.858893836 
DEBITS IMPOSES : 0.;4. 
COTES IMPOSEES : 1.8;0.
/
BANCS DECOUVRANTS = NON
/
VARIABLES POUR LES SORTIES GRAPHIQUES 2D = 'U,V,H,B,S'
VARIABLES POUR LES SORTIES GRAPHIQUES 3D = 'Z,U,V,W,DP,EPS,K,NUZ,TA1'
BILAN DE MASSE = OUI
INFORMATION SUR LE BILAN DE MASSE A CHAQUE SORTIE LISTING = OUI
/
/-----------------------
/     CONVECTION-DIFFUSION
/-----------------------
/ 
SCHEMA POUR LA CONVECTION DES VITESSES = 13
SCHEMA POUR LA CONVECTION DES TRACEURS = 13
SCHEMA POUR LA CONVECTION DU K-EPSILON = 13
/
MODELE DE TURBULENCE HORIZONTAL = 1
COEFFICIENT DE DIFFUSION HORIZONTAL DES VITESSES = 1.D-6
/
MODELE DE TURBULENCE VERTICAL = 2
COEFFICIENT DE DIFFUSION VERTICAL DES VITESSES   = 1.D-6
/
MODELE DE TURBULENCE HORIZONTAL = 3
MODELE DE TURBULENCE VERTICAL   = 3
/
/----------------------------/
/     TERMES SOURCES
/----------------------------/
/
COEFFICIENT DE FROTTEMENT POUR LE FOND = 30.
LOI DE FROTTEMENT SUR LE FOND = 3
/
/----------------------------/
/     PROPAGATION
/----------------------------/
/
SOLVEUR POUR LA VITESSE VERTICALE=2
PRECISION POUR LA DIFFUSION DES VITESSES = 1.E-5
PRECONDITIONNEMENT POUR LA DIFFUSION DES VITESSES : 34
PRECISION POUR LA VITESSE VERTICALE = 1.E-5
PRECISION POUR LA PROPAGATION = 1.E-6
/
IMPLICITATION POUR LA HAUTEUR   = 0.6 
IMPLICITATION POUR LES VITESSES = 0.6
SOLVEUR POUR LA DIFFUSION DES VITESSES = 1
/
/ NON HYDROSTATIQUE
/ 
VERSION NON-HYDROSTATIQUE : OUI   
MASS-LUMPING POUR LA HAUTEUR : 0.
/
/  SYSTEMES LINEAIRES DE L'OPTION NON-HYDROSTATIQUE
/
SOLVEUR POUR PPE = 2  PRECISION POUR PPE = 1.E-5
PRECONDITIONNEMENT POUR PPE = 2         
MAXIMUM D'ITERATIONS POUR PPE = 250
/
SOLVEUR POUR LA PROPAGATION = 1
/
VALEURS IMPOSEES DES TRACEURS : 30.;30.
VALEURS INITIALES DES TRACEURS : 30.
NOMBRE DE TRACEURS          : 1
NOMS DES TRACEURS           : 'SALINITE                     '
LOI DE DENSITE              : 2
/
FILTRE LES INCONSISTANCES HYDROSTATIQUES : OUI
TRAITEMENT DES FLUX AUX FRONTIERES : 2;2
STOCKAGE DES MATRICES : 3
TRANSFORMATION DU MAILLAGE : 3
COMPATIBILITE DU GRADIENT DE SURFACE LIBRE : 0.9
/
/&ETA
&FIN
