/ 26/02/2010
/
/ CV: ICQ et ICR reprise des memes mots cles pour SISYPHE que pour TELEMAC3D
/ Seule la valeur par defaut de ICR est differente
/ SISYPHE : ICR=1: KSP=KSPRATIO *D50
/TEL3D      ICR=0: TAUP=TOB
/ ICR: CORRECTION FROTTEMENT DE PEAU
/ ICQ: FORMULE POUR LA CONCENTRATION DE REFERENCE
/la formule 3: utiliser seulement si frottement de Nikuradse (KFROT=5)
/
&DYN
/
/---SYSTEME-TELEMAC-V6P3------------------------------TELEMAC-3D-------------
/
/Signification des differents mode d'acquisition/restitution
/des fichiers vis a vis du parallelisme :
/
/  - "SCAL" :	
/     Meme fichier pour tous les processeurs lu par tous.	
/     Seule la version du maître est consideree apres calcul.
/
/  - "SELAFIN" :	
/     Le fichier est "decompose/regroupe en sous-domaines" avec les outils
/      "partel/gretel" (dans le mode par defaut "parallelisme automatique")	
/     Chaque processeur dispose d'un fichier prive.
/  - "SELAFIN-GEOM" :
/     idem SELAFIN mais pour le fichier de geometrie ='FICHIER DE GEOMETRIE'
/      (usage par le regoupeur GRETEL en parallelisme)
/
/  - "PARAL" :	
/     Le fichier est duplique avant calcul ("LIT") pour chaque processeur
/      (avec une extension numerique), sauf s'il pre-existe avec cette  
/      extension numerique : il est alors utilise (copie).	
/     En mode "non automatique" : les fichiers lus doivent pre-exister avec 
/      leur extension numerique.	
/     S'il s'agit d'un fichier resultat ("ECR"), le fichier est restitue
/      avec son extension numerique (fichier specifique a chaque processeur).	
/
/  - "CONLIM" :	
/     Cette valeur designe le fichier des "conditions aux limites"	
/     (utilise par le decoupeur "partel").
/
/---SYSTEME-TELEMAC-V6P3------------------------DeltaCAD-/-Septembre-2003----
/
NOM = 'NOMBRE DE PAS DE TEMPS'
NOM1 = 'NUMBER OF TIME STEPS'
TYPE = ENTIER
INDEX = 1
MNEMO = 'NIT'
TAILLE = 0
DEFAUT = 1
DEFAUT1 = 1
RUBRIQUE = 'PARAMETRES NUMERIQUES';'DUREE DU CALCUL'
RUBRIQUE1 = 'NUMERIC PARAMETERS';'DURATION'
NIVEAU = 1
COMPORT = 
'Foreground ("PARAMETRES NUMERIQUES*DUREE DU CALCUL")
IS BRUT (blue)'
AIDE = 'Definit le nombre de pas de temps effectues lors de
l''execution du code.'
AIDE1 = 'Specifies the number of time steps performed when running
the code.'

NOM = 'NOMBRE DE PLANS HORIZONTAUX'
NOM1 = 'NUMBER OF HORIZONTAL LEVELS'
TYPE = ENTIER
INDEX = 2
MNEMO = 'NPLAN'
TAILLE = 0
DEFAUT = 2
DEFAUT1 = 2
RUBRIQUE = 'PARAMETRES NUMERIQUES';'GENERAL'
RUBRIQUE1 = 'NUMERIC PARAMETERS';'GENERAL'
NIVEAU = 1
COMPORT=
'Foreground ("PARAMETRES NUMERIQUES*GENERAL")
IS BRUT (blue)'
AIDE = 'Definit le nombre de plans du maillage entre le fond et la
surface. Vaut au moins 2.'
AIDE1 = 'Gives the number of planes from bottom to free surface. Must
be at least 2'

NOM = 'NOMBRE DE TRACEURS'
NOM1 = 'NUMBER OF TRACERS'
TYPE = ENTIER
INDEX = 3
MNEMO = 'NTRAC'
TAILLE = 0
DEFAUT = 0
DEFAUT1 = 0
RUBRIQUE = 'EQUATIONS, TRACEUR'
RUBRIQUE1 = 'EQUATIONS';'TRACER'
NIVEAU = 1
COMPORT = 
'Foreground ("EQUATIONS, TRACEUR")
IS BRUT (brown)'
AIDE = 'Definit le nombre de traceurs.'
AIDE1 = 'Defines the number of tracers'

NOM = 'MODELE DE LONGUEUR DE MELANGE'
NOM1 = 'MIXING LENGTH MODEL'
TYPE = ENTIER
INDEX = 4
MNEMO = 'MIXING'
TAILLE = 0
DEFAUT = 1
DEFAUT1 = 1
RUBRIQUE = ''
RUBRIQUE1 = ''
NIVEAU = 1
AIDE = '1: PRANDTL 3: NEZU ET NAKAGAWA 5: QUETIN 6: TSANIS
4 (jet) a ete supprime'
AIDE1 = '1: PRANDTL 3: NEZU AND NAKAGAWA 5: QUETIN 6: TSANIS
4 (jet) has been suppressed'

NOM = 'NOMBRE DE FLOTTEURS'
NOM1 = 'NUMBER OF DROGUES'
TYPE = ENTIER
INDEX = 5
MNEMO = 'NFLOT'
CONTROLE = 0 ; 10
TAILLE = 0
DEFAUT = 0
DEFAUT1 = 0
RUBRIQUE = 'ENTREES-SORTIES, GRAPHIQUES ET LISTING'
RUBRIQUE1 = 'INPUT-OUTPUT, GRAPHICS AND LISTING'
NIVEAU = 2
AIDE = 'Permet d''effectuer un suivi de flotteurs.
Fixe le nombre de flotteurs a traiter lors du calcul.
Il est alors necessaire de mettre a jour le sous-programme FLOT
afin de fournir les informations sur les positions de largage
et les temps de suivi des flotteurs.'
AIDE1 = 'Number of drogues in the computation.
The user must then fill the subroutine FLOT specifying
the coordinates of the starting points, their departure
and arrival times.
The trajectory of drogues is recorded in the BINARY RESULTS
FILE that must be given in the steering file'

NOM = 'PERIODE POUR LES SORTIES DE FLOTTEURS'
NOM1 = 'PRINTOUT PERIOD FOR DROGUES'
TYPE = ENTIER
INDEX = 6
MNEMO = 'FLOPRD'
CONTROLE = 1 ; 100
TAILLE = 0
DEFAUT = 1
DEFAUT1 = 1
RUBRIQUE = 'ENTREES-SORTIES, GRAPHIQUES ET LISTING'
RUBRIQUE1 = 'INPUT-OUTPUT, GRAPHICS AND LISTING'
NIVEAU = 2
AIDE = 'Nombre de pas de temps entre 2 sorties de positions de
flotteurs dans le fichier des resultats binaire supplementaire
N affecte pas la qualite du calcul de la trajectoire'
AIDE1 = 'Number of time steps between 2 outputs of drogues
positions in the binary file.
It does not disturb the quality of the computation of the trajectory.'

NOM = 'PERIODE POUR LES SORTIES GRAPHIQUES'
NOM1 = 'GRAPHIC PRINTOUT PERIOD'
TYPE = ENTIER
INDEX = 7
MNEMO = 'GRAPRD'
TAILLE = 0
DEFAUT = 1
DEFAUT1 = 1
RUBRIQUE = 'ENTREES-SORTIES, GRAPHIQUES ET LISTING'
RUBRIQUE1 = 'INPUT-OUTPUT, GRAPHICS AND LISTING'
NIVEAU = 1
COMPORT =
'Foreground ("ENTREES-SORTIES, GRAPHIQUES ET LISTING")
IS BRUT (red)'
AIDE = 'Determine la periode en nombre de pas de temps d''impression
des ''VARIABLES POUR LES SORTIES GRAPHIQUES 2D ou 3D'' (voir ces mot-cles)
dans le FICHIER DES RESULTATS.'
AIDE1 = 'Determines, in number of time steps, the printout period for
the VARIABLES FOR 2D (or 3D) GRAPHIC PRINTOUTS in the RESULTS FILE.'

NOM = 'PERIODE POUR LES SORTIES LISTING'
NOM1 = 'LISTING PRINTOUT PERIOD'
TYPE = ENTIER
INDEX = 8
MNEMO = 'LISPRD'
TAILLE = 0
DEFAUT = 1
DEFAUT1 = 1
RUBRIQUE = 'ENTREES-SORTIES, GRAPHIQUES ET LISTING'
RUBRIQUE1 = 'INPUT-OUTPUT, GRAPHICS AND LISTING'
NIVEAU = 1
AIDE = 'Determine la periode en nombre de pas de temps d''impression
des ''VARIABLES A IMPRIMER'' (voir ce mot-cle) Pour la mise au point;
il faut savoir que la sortie des resultats est effectuee
systematiquement sur le listing'
AIDE1 = 'Determines, in number of time steps, the printout period of
the VARIABLES TO BE PRINTED
The results are systematically printed out on the listing file
(file CAS.SORTIE at the workstation).'

NOM = 'NUMERO DU PREMIER PAS DE TEMPS POUR LES SORTIES GRAPHIQUES'
NOM1 = 'NUMBER OF FIRST TIME STEP FOR GRAPHIC PRINTOUTS'
TYPE = ENTIER
INDEX = 9
MNEMO = 'GRADEB'
TAILLE = 0
DEFAUT = 0
DEFAUT1 = 0
RUBRIQUE = 'ENTREES-SORTIES, GRAPHIQUES ET LISTING'
RUBRIQUE1 = 'INPUT-OUTPUT, GRAPHICS AND LISTING'
NIVEAU = 1
AIDE = 'Determine le numero de pas de temps a partir duquel debute
l''ecriture des resultats dans le ''FICHIER DES RESULTATS 2D ou 3D''.'
AIDE1 = 'Determines the number of time steps after which the results
are first written into the 2D or 3D RESULTS FILE.'

NOM = 'NUMERO DU PREMIER PAS DE TEMPS POUR LES SORTIES LISTING'
NOM1 = 'NUMBER OF FIRST TIME STEP FOR LISTING PRINTOUTS'
TYPE = ENTIER
INDEX = 10
MNEMO = 'LISDEB'
TAILLE = 0
DEFAUT = 0
DEFAUT1 = 0
RUBRIQUE = 'ENTREES-SORTIES, GRAPHIQUES ET LISTING'
RUBRIQUE1 = 'INPUT-OUTPUT, GRAPHICS AND LISTING'
NIVEAU = 1
AIDE = 'Determine le numero de pas de temps a partir duquel debute
l''ecriture des resultats dans le listing.'
AIDE1 = 'Determines the number of time steps after which the results
are first written into the listing.'

NOM = 'NOMBRE DE LISSAGES DU FOND'
NOM1 = 'NUMBER OF BOTTOM SMOOTHINGS'
TYPE = ENTIER
INDEX = 11
MNEMO = 'LISFON'
CONTROLE = 0 ; 100
TAILLE = 0
DEFAUT = 0
DEFAUT1 = 0
RUBRIQUE = 'EQUATIONS';'LISSAGE'
RUBRIQUE1 = 'EQUATIONS';'SMOOTHINGS'
NIVEAU = 1
COMPORT =
'Foreground ("EQUATIONS*LISSAGE")
IS BRUT (brown)'
AIDE = 'Nombre de lissages effectues sur la topographie.
chaque lissage, effectue a l''aide d''une matrice de masse,
est conservatif.
Utilise lorsque les donnees de bathymetrie donnent des resultats
trop irreguliers apres interpolation.'
AIDE1 ='Number of smoothings on bottom topography.
each smoothing is mass conservative.
to be used when interpolation of bathymetry on the mesh gives
very rough results.'

NOM = 'NOMBRE DE SOUS ITERATIONS POUR LES NON LINEARITES'
NOM1 = 'NUMBER OF SUB ITERATIONS FOR NON LINEARITIES'
TYPE = ENTIER
INDEX = 12
MNEMO = 'NSOUSI'
TAILLE = 0
DEFAUT = 1
DEFAUT1 = 1
RUBRIQUE = 'PARAMETRES NUMERIQUES';'GENERAL'
RUBRIQUE1 = 'NUMERICAL PARAMETERS';'GENERAL'
NIVEAU = 1
AIDE = 'Permet de reactualiser, pour un meme pas de temps, les champs
convecteur et propagateur au cours de plusieurs sous-iterations. A la
premiere sous-iteration, ces champs sont donnes par C et le champ de
vitesses au pas de temps precedent. Aux iterations suivantes, ils sont
pris egaux au champ de vitesse obtenu a la fin de la sous-iteration
precedente. Cette technique permet d''ameliorer la prise en compte des
non linearites.'
AIDE1 = 'Used for updating, within one time step, the advection and
propagation field.
upon the first sub-iteration, these fields are given by
C and the velocity field in the previous time step. At subsequent
iterations, the results of the previous sub-iteration is used to
update the advection and propagation field.
The non-linearities can be taken into account through this technique.'

NOM = 'NUMERO DU PLAN DE REFERENCE INTERMEDIAIRE'
NOM1 = 'NUMBER OF THE INTERMEDIATE REFERENCE LEVEL'
TYPE = ENTIER
INDEX = 13
MNEMO = 'PLAN_REF'
TAILLE = 0
DEFAUT = 1
DEFAUT1 = 1
RUBRIQUE = 'PARAMETRES NUMERIQUES';'GENERAL'
RUBRIQUE1 = 'NUMERICAL PARAMETERS';'GENERAL'
NIVEAU = 1
AIDE = 'Permet lorsque cet entier est strictement compris
entre 1 et NPLAN
de scinder suivant Z le domaine en 2
impliquant 2 transformations sigma.'
AIDE1 = ''

NOM = 'MODELE DE TURBULENCE VERTICAL'
NOM1 = 'VERTICAL TURBULENCE MODEL'
TYPE = ENTIER
INDEX = 14
MNEMO = 'ITURBV'
TAILLE = 0
DEFAUT = 1
DEFAUT1 = 1
CHOIX = '1="VISCOSITE CONSTANTE"';
        '2="LONGUEUR DE MELANGE"';
        '3="MODELE K-EPSILON"';
        '4="SMAGORINSKI"';
        '5= ';
        '6= ';
        '7="MODELE K-OMEGA" '
CHOIX1 = '1="CONSTANT VISCOSITY"';
         '2="MIXING LENGTH"';
         '3="K-EPSILON MODEL"';
         '4="SMAGORINSKI"';
         '5= ';
         '6= ';
         '7="K-OMEGA MODEL" '
CONTROLE = 1 ; 7
RUBRIQUE = 'EQUATIONS';'MODELE DE TURBULENCE'
RUBRIQUE1 = 'EQUATIONS';'TURBULENCE MODEL'
NIVEAU = 1
AIDE = '5 choix sont possibles actuellement.
Attention : si on choisit l''option 1;
il ne faut pas oublier d''ajuster la valeur du mot-cle COEFFICIENT DE
DIFFUSION DES ....
Si on choisit l''option 3 ou 7;
ce meme parametre doit retrouver sa vraie valeur physique, en general
environ 1.E-6 car elle est utilisee comme telle dans le modele de
turbulence'
AIDE1 = 'Five choices available.
Beware : if option 1 chosen, give the right 
COEFFICIENT FOR HORIZONTAL DIFFUSION OF VELOCITIES
DIFFUSION DES ....
If option 3 ou 7 is chosen, this parameter must get its real physical
value of molecular diffusivity, generally about 1.E-6.'

NOM = 'REGIME DE TURBULENCE POUR LE FOND'
NOM1 = 'TURBULENCE MODEL FOR THE BOTTOM'
TYPE = ENTIER
INDEX = 15
MNEMO = 'LISRUF'
TAILLE = 0
DEFAUT = 2
DEFAUT1 = 2
CHOIX = '1= lisse ';
        '2= rugueux'
CHOIX1 = '1= smooth';
         '2= rough'
CONTROLE = 1 ; 3
RUBRIQUE = 'EQUATIONS';'MODELE DE TURBULENCE';'MODELE K-EPSILON'
RUBRIQUE1 = 'EQUATIONS';'TURBULENCE MODEL';'K-EPSILON MODEL'
NIVEAU = 1
COMPORT = 
'Foreground ("EQUATIONS*MODELE DE TURBULENCE*MODELE K-EPSILON")
IS BRUT (brown)'
AIDE = 'Permet de definir le regime de turbulence pour le fond dans le
cas du modele de longueur de melange ou du modele k-epsilon :
1 : lisse;
2 : rugueux 
3 : rugueux (compatibilite avec anciennes versions)'
AIDE1 = 'Defines the turbulence regime for the bottom in the case of a
k-epsilon or mixing-length model.
1 : smooth;
2 : rough 
3 : rough also (for compatibility with old versions)'

NOM = 'REGIME DE TURBULENCE POUR LES PAROIS LATERALES'
NOM1 = 'TURBULENCE MODEL FOR LATERAL SOLID BOUNDARIES'
TYPE = ENTIER
INDEX = 16
MNEMO = 'LISRUL'
TAILLE = 0
DEFAUT = 2
DEFAUT1 = 2
CHOIX = '1="lisse"';
        '2="rugueux"'
CHOIX1= '1="smooth"';
        '2="rough"'
CONTROLE = 1 ; 3
RUBRIQUE = 'EQUATIONS';'MODELE DE TURBULENCE';'MODELE K-EPSILON'
RUBRIQUE1 = 'EQUATIONS';'TURBULENCE MODEL';'K-EPSILON MODEL'
NIVEAU = 1
AIDE = 'Definit le regime de turbulence pour les parois laterales'
AIDE1 = 'Defines the turbulence regime for the lateral boundaries'

NOM = 'ORDRE DU TIR INITIAL POUR LA HAUTEUR'
NOM1 = 'INITIAL GUESS FOR DEPTH'
TYPE = ENTIER
INDEX = 17
MNEMO = 'IORDRH'
TAILLE = 0
DEFAUT = 1
DEFAUT1 = 1
CHOIX = '0=zero';
        '1=precedent';
        '2=extrapolation'
CHOIX1 = '0=zero';
         '1=previous';
         '2=extrapolation'
CONTROLE = 0 ; 2
RUBRIQUE = 'PARAMETRES NUMERIQUES, VITESSE-CELERITE-HAUTEUR'
RUBRIQUE1 = 'NUMERICAL PARAMETERS, VELOCITY-CELERITY-DEPTH'
NIVEAU = 1
COMPORT = 
'Foreground ("PARAMETRES NUMERIQUES, VITESSE-CELERITE-HAUTEUR")
IS BRUT (blue)'
AIDE = 'Tir initial du solveur de l''etape de propagation.
Offre la possibilite de modifier la valeur initiale de DH,
accroissement de H, a chaque iteration,
dans l''etape de propagation en utilisant les valeurs
finales de cette variable aux pas de temps precedents. Ceci peut
permettre d''accelerer la vitesse de convergence lors de la resolution
du systeme. Trois possibilites sont offertes :
 0 : DH = 0.
 1 : DH = DHn (valeur finale de DH au pas de temps precedent),
 2 : DH = 2DHn - DHn-1 (extrapolation).'
AIDE1 = 'Initial guess for the solver in the propagation step.
Makes it possible to modify the initial value of C, upon each
iteration in the propagation step, by using the ultimate values this
variable had in the earlier time steps. Thus, the convergence can be
speeded up when the system is being solved. 3 options are available:
 0: DH = 0
 1: DH = DHn (ultimate DH value in the next previous time step)
 2: DH = 2DHn - DHn-1 (extrapolation)'

NOM = 'SCHEMA POUR LA CONVECTION DES VITESSES'
NOM1 = 'SCHEME FOR ADVECTION OF VELOCITIES'
TYPE = ENTIER
INDEX = 18
MNEMO = 'SCHCVI'
TAILLE = 0
CHOIX = '0="PAS DE CONVECTION"';
        '1="CARACTERISTIQUES"';
        '2="EXPLICITE + SUPG"';
        '3="EXPLICITE LEO POSTMA"';
        '4="EXPLICITE + MURD SCHEMA N"';
        '5="EXPLICITE + MURD SCHEMA PSI"';
        '13="LEO POSTMA POUR BANCS DECOUVRANTS"';
        '14="SCHEMA N POUR BANCS DECOUVRANTS"'
CHOIX1 = '0="NO ADVECTION"';
         '1="CHARACTERISTICS"';
         '2="EXPLICIT + SUPG"';
         '3="EXPLICIT LEO POSTMA"';
         '4="EXPLICIT + MURD SCHEME N"';
         '5="EXPLICIT + MURD SCHEME PSI"';
         '13="LEO POSTMA FOR TIDAL FLATS"';
         '14="N-SCHEME FOR TIDAL FLATS"'
CONTROLE = 0 ; 15
DEFAUT = 1
DEFAUT1 = 1
RUBRIQUE = 'EQUATIONS, CONVECTION';'GENERAL'
RUBRIQUE1 = 'EQUATIONS, ADVECTION';'GENERAL'
COMPORT = 
'Foreground ("EQUATIONS, CONVECTION*GENERAL")
IS BRUT (blue)'
NIVEAU = 1
AIDE = 'Choix du schema de convection pour les vitesses'
AIDE1 = 'Choice of the advection scheme for the veocities'

NOM = 'SCHEMA POUR LA CONVECTION DES TRACEURS'
NOM1 = 'SCHEME FOR ADVECTION OF TRACERS'
TYPE = ENTIER
INDEX = 19
MNEMO = 'SCHCTA'
TAILLE = 1
CHOIX = '0="PAS DE CONVECTION"';
        '1="CARACTERISTIQUES"';
        '2="EXPLICITE + SUPG"';
        '3="EXPLICITE LEO POSTMA"';
        '4="EXPLICITE + MURD SCHEMA N"';
        '5="EXPLICITE + MURD SCHEMA PSI"';
        '13="LEO POSTMA POUR BANCS DECOUVRANTS"';
        '14="SCHEMA N POUR BANCS DECOUVRANTS"'
CHOIX1 = '0="NO ADVECTION"';
         '1="CHARACTERISTICS"';
         '2="EXPLICIT + SUPG"';
         '3="EXPLICIT LEO POSTMA"';
         '4="EXPLICIT + MURD SCHEME N"';
         '5="EXPLICIT + MURD SCHEME PSI"';
         '13="LEO POSTMA FOR TIDAL FLATS"';
         '14="N-SCHEME FOR TIDAL FLATS"'
CONTROLE = 0 ; 14
DEFAUT = 5
DEFAUT1 = 5
RUBRIQUE = 'EQUATIONS, CONVECTION';'GENERAL'
RUBRIQUE1 = 'EQUATIONS, ADVECTION';'GENERAL'
COMPORT = 
'Foreground ("EQUATIONS, CONVECTION*GENERAL")
IS BRUT (blue)'
NIVEAU = 1
AIDE = 'Choix du schema de convection pour les traceurs'
AIDE1 = 'Choice of the advection scheme for the tracers'

NOM = 'FONCTION D''AMORTISSEMENT'
NOM1 = 'DAMPING FUNCTION'
TYPE = ENTIER
INDEX = 20
MNEMO = 'DAMPING'
TAILLE = 0
CONTROLE = 0 
DEFAUT = 0
DEFAUT1 = 0
RUBRIQUE = ''
RUBRIQUE1 = ''
NIVEAU = 1
AIDE = '0: RIEN   1: FAIT PAR L''UTILISATEUR  
 2: VIOLLET  3: MUNK ET ANDERSON'
AIDE1 = '0: NOTHING   1: USER PROGRAMMED  
 2: VIOLLET     3:  MUNK AND ANDERSON'

NOM = 'SCHEMA POUR LA CONVECTION DU K-EPSILON'
NOM1 = 'SCHEME FOR ADVECTION OF K-EPSILON'
TYPE = ENTIER
INDEX = 21
MNEMO = 'SCHCKE'
TAILLE = 0
CHOIX = '0="PAS DE CONVECTION"';
        '1="CARACTERISTIQUES"';
        '2="EXPLICITE + SUPG"';
        '3="EXPLICITE LEO POSTMA"';
        '4="EXPLICITE + MURD SCHEMA N"';
        '5="EXPLICITE + MURD SCHEMA PSI"';
        '13="LEO POSTMA POUR BANCS DECOUVRANTS"';
        '14="SCHEMA N POUR BANCS DECOUVRANTS"'
CHOIX1 = '0="NO ADVECTION"';
         '1="CHARACTERISTICS"';
         '2="EXPLICIT + SUPG"';
         '3="EXPLICIT LEO POSTMA"';
         '4="EXPLICIT + MURD SCHEME N"';
         '5="EXPLICIT + MURD SCHEME PSI"';
         '13="LEO POSTMA FOR TIDAL FLATS"';
         '14="N-SCHEME FOR TIDAL FLATS"'
CONTROLE = 0 ; 5
DEFAUT = 1
DEFAUT1 = 1
RUBRIQUE = 'EQUATIONS, CONVECTION';'GENERAL'
RUBRIQUE1 = 'EQUATIONS, ADVECTION';'GENERAL'
COMPORT = 
'Foreground ("EQUATIONS, CONVECTION*GENERAL")
IS BRUT (blue)'
NIVEAU = 1
AIDE = 'Choix du schema de convection pour k et epsilon'
AIDE1 = 'Choice of the advection scheme for k and epsilon'

NOM = 'SCHEMA POUR LA CONVECTION DE LA HAUTEUR'
NOM1 = 'SCHEME FOR ADVECTION OF DEPTH'
TYPE = ENTIER
INDEX = 22
MNEMO = 'SCHCH'
TAILLE = 0
CHOIX = '5="CONSERVATIF"'
CHOIX1 = '5="CONSERVATIVE"'
CONTROLE = 5 ; 5
DEFAUT = 5
DEFAUT1 = 5
RUBRIQUE = 'EQUATIONS, CONVECTION';'GENERAL'
RUBRIQUE1 = 'EQUATIONS, ADVECTION';'GENERAL'
COMPORT = 
'Foreground ("EQUATIONS, CONVECTION*GENERAL")
IS BRUT (blue)'
NIVEAU = 1
AIDE = 'Desormais fixe a 5'
AIDE1 = 'Now 5 is mandatory'

NOM = 'SCHEMA POUR LA DIFFUSION DES VITESSES'
NOM1 = 'SCHEME FOR DIFFUSION OF VELOCITIES'
TYPE = ENTIER
INDEX = 23
MNEMO = 'SCHDVI'
TAILLE = 0
CHOIX = '0="PAS DE DIFFUSION"';
        '1="IMPLICITE"'
CHOIX1 = '0="NO DIFFUSION"';
         '1="IMPLICIT"'
CONTROLE = 0 ; 1
DEFAUT = 1
DEFAUT1 = 1
RUBRIQUE = 'EQUATIONS, DIFFUSION';'GENERAL'
RUBRIQUE1 = 'EQUATIONS, DIFFUSION';'GENERAL'
COMPORT = 
'Foreground ("EQUATIONS, DIFFUSION*GENERAL")
IS BRUT (blue)'
NIVEAU = 1
AIDE = 'Prise en compte ou non de la diffusion des vitesses
avec option sur le schema.'
AIDE1 = 'Monitors the choice of the diffusion scheme 
for velocities'

NOM = 'SCHEMA POUR LA DIFFUSION DES TRACEURS'
NOM1 = 'SCHEME FOR DIFFUSION OF TRACERS'
TYPE = ENTIER
INDEX = 24
MNEMO = 'SCHDTA'
TAILLE = 0
CHOIX = '0="PAS DE DIFFUSION"';
        '1="IMPLICITE"'
CHOIX1 = '0="NO DIFFUSION"';
         '1="IMPLICIT"'
CONTROLE = 0 ; 1
DEFAUT = 1
DEFAUT1 = 1
RUBRIQUE = 'EQUATIONS, DIFFUSION';'GENERAL'
RUBRIQUE1 = 'EQUATIONS, DIFFUSION';'GENERAL'
COMPORT = 
'Foreground ("EQUATIONS, DIFFUSION*GENERAL")
IS BRUT (blue)'
NIVEAU = 1
AIDE = 'Prise en compte ou non de la diffusion des traceurs
avec option sur le schema.'
AIDE1 = 'Monitors the choice of the diffusion scheme 
for tracers'

NOM = 'LOI DE FROTTEMENT SUR LES PAROIS LATERALES'
NOM1 = 'LAW OF FRICTION ON LATERAL BOUNDARIES'
TYPE = ENTIER
INDEX = 25
MNEMO = 'KFROTL'
TAILLE = 0
DEFAUT = 0
DEFAUT1 = 0
CHOIX = '0="PAS DE FROTTEMENT"';
'1="COEFFICIENT PRIS DANS LE FICHIER DES CONDITIONS AUX LIMITES"';
'2="IDEM"';
'3="IDEM"';
'4="IDEM"';
'5="NIKURADSE"'
CHOIX1 = '0="NO FRICTION"';
'1="COEFFICIENT TAKEN IN BOUNDARY CONDITIONS FILE"';
'2="IDEM"';
'3="IDEM"';
'4="IDEM"';
'5="NIKURADSE"'
RUBRIQUE = 'EQUATIONS';'FROTTEMENT'
RUBRIQUE1 = 'EQUATIONS';'FRICTION'
NIVEAU = 1
AIDE = 'selectionne le type de formulation utilisee pour le calcul
du frottement sur les parois laterales.
Les lois possibles sont les suivantes (cf. Note de principe) :  
0 : pas de frottement , ou AUBOR donne par le fichier des conditions aux limites
1 :  
2 :  
3 :  
4 :  
5 : formule de NIKURADSE '
AIDE1 = 'Selects the type of formulation used for the friction on lateral boundaries.
The possible laws are as follows (refer to the Principle note):
0: no friction, or AUBOR given by the boundary conditions file ,
1:  
2:  
3:  
4:  
5: NIKURADSE''s formula '

NOM = 'SCHEMA POUR LA DIFFUSION DU K-EPSILON'
NOM1 = 'SCHEME FOR DIFFUSION OF K-EPSILON'
TYPE = ENTIER
INDEX = 26
MNEMO = 'SCHDKE'
TAILLE = 0
CHOIX = '0="PAS DE DIFFUSION"';
        '1="IMPLICITE"'
CHOIX1 = '0="NO DIFFUSION"';
         '1="IMPLICIT"'
CONTROLE = 0 ; 1
DEFAUT = 1
DEFAUT1 = 1
RUBRIQUE = 'EQUATIONS, DIFFUSION';'GENERAL'
RUBRIQUE1 = 'EQUATIONS, DIFFUSION';'GENERAL'
COMPORT = 
'Foreground ("EQUATIONS, DIFFUSION*GENERAL")
IS BRUT (blue)'
NIVEAU = 1
AIDE = 'Prise en compte ou non de la diffusion de k et epsilon
avec option sur le schema.'
AIDE1 = 'Monitors the choice of the diffusion scheme 
for k and epsilon'

NOM = 'PRECONDITIONNEMENT POUR LA DIFFUSION DES VITESSES'
NOM1 = 'PRECONDITIONING FOR DIFFUSION OF VELOCITIES'
TYPE = ENTIER
INDEX = 27
MNEMO = 'SLVDVI%PRECON'
TAILLE = 0
DEFAUT = 2
DEFAUT1 = 2
CHOIX = '0="AUCUN"';
        '2="DIAGONAL"';
        '3="DIAGONAL CONDENSEE"';
        '5="DIAGONAL A VALEURS ABSOLUES"';
        '7="CROUT"';
        '11="GAUSS-SEIDEL EBE"';
        '13="MATRICE DEFINIE PAR L UTILISATEUR"';
        '14="DIAGONAL ET CROUT"';
        '17="SOLVEUR DIRECT SUR LA VERTICALE"';
        '21="DIAGONAL CONDENSE ET CROUT"';
        '34="DIAGONAL ET SOLVEUR DIRECT SUR LA VERTICALE"'
CHOIX1 = '0="no preconditioning"';
         '2="diagonal"';
         '3="diagonal condensed"';
         '5="diagonal with absolute values"';
         '7="Crout"';
         '11="Gauss-Seidel EBE"';
         '13="Matrix defined by the user"';
         '14="diagonal and Crout"';
         '17="direct solver on the vertical"';
         '21="diagonal condensed and Crout"';
         '34="diagonal and direct solver on the vertical"'
RUBRIQUE = 'EQUATIONS, DIFFUSION';'GENERAL'
RUBRIQUE1 = 'EQUATIONS, DIFFUSION';'GENERAL'
NIVEAU = 1
COMPORT = 
'Foreground ("EQUATIONS, DIFFUSION*GENERAL")
IS BRUT (brown)'
AIDE = 'Permet de preconditionner le systeme relatif
a la diffusion des vitesses.'
AIDE1 = 'Choice of preconditioning for the diffusion of 
velocities'

NOM = 'PRECONDITIONNEMENT POUR LA DIFFUSION DES TRACEURS'
NOM1 = 'PRECONDITIONING FOR DIFFUSION OF TRACERS'
TYPE = ENTIER
INDEX = 28
MNEMO = 'SLVDTA(ITRAC)%PRECON'
TAILLE = 1
DEFAUT = 2
DEFAUT1 = 2
CHOIX = '0="AUCUN"';
        '2="DIAGONAL"';
        '3="DIAGONAL CONDENSEE"';
        '5="DIAGONAL A VALEURS ABSOLUES"';
        '7="CROUT"';
        '11="GAUSS-SEIDEL EBE"';
        '13="MATRICE DEFINIE PAR L UTILISATEUR"';
        '14="DIAGONAL ET CROUT"';
        '17="SOLVEUR DIRECT SUR LA VERTICALE"';
        '21="DIAGONAL CONDENSE ET CROUT"';
        '34="DIAGONAL ET SOLVEUR DIRECT SUR LA VERTICALE"'
CHOIX1 = '0="no preconditioning"';
         '2="diagonal"';
         '3="diagonal condensed"';
         '5="diagonal with absolute values"';
         '7="Crout"';
         '11="Gauss-Seidel EBE"';
         '13="Matrix defined by the user"';
         '14="diagonal and Crout"';
         '17="direct solver on the vertical"';
         '21="diagonal condensed and Crout"';
         '34="diagonal and direct solver on the vertical"'
RUBRIQUE = 'EQUATIONS, DIFFUSION';'GENERAL'
RUBRIQUE1 = 'EQUATIONS, DIFFUSION';'GENERAL'
NIVEAU = 1
COMPORT = 
'Foreground ("EQUATIONS, DIFFUSION*GENERAL")
IS BRUT (brown)'
AIDE = 'Permet de preconditionner le systeme relatif
a la diffusion des traceurs.'
AIDE1 = 'Choice of preconditioning for the diffusion of tracers'

NOM = 'MAXIMUM D''ITERATIONS POUR LA DIFFUSION DU SEDIMENT'
NOM1 = 'MAXIMUM NUMBER OF ITERATIONS FOR DIFFUSION OF SEDIMENT'
TYPE = ENTIER
INDEX = 29
MNEMO = 'SLVDSE%NITMAX'
TAILLE = 0
DEFAUT = 60
DEFAUT1 = 60
RUBRIQUE = 'EQUATIONS, DIFFUSION';'TRACEUR'
RUBRIQUE1 = 'EQUATIONS, DIFFUSION';'TRACER'
NIVEAU = 1
COMPORT = 
'Foreground ("EQUATIONS, DIFFUSION*TRACEUR")
IS BRUT (brown)'
AIDE = 'Limite le nombre d''iterations du solveur a chaque pas
de temps pour le calcul de la diffusion du sediment.'
AIDE1 = 'Limits the number of iterations of the solver for the diffusion
 of sediment'

NOM = 'PRECONDITIONNEMENT POUR LA DIFFUSION DU K-EPSILON'
NOM1 = 'PRECONDITIONING FOR DIFFUSION OF K-EPSILON'
TYPE = ENTIER
INDEX = 30
MNEMO = 'SLVDKE%PRECON'
TAILLE = 0
DEFAUT = 2
DEFAUT1 = 2
CHOIX = '0="AUCUN"';
        '2="DIAGONAL"';
        '3="DIAGONAL CONDENSEE"';
        '5="DIAGONAL A VALEURS ABSOLUES"';
        '7="CROUT"';
        '11="GAUSS-SEIDEL EBE"';
        '13="MATRICE DEFINIE PAR L UTILISATEUR"';
        '14="DIAGONAL ET CROUT"';
        '17="SOLVEUR DIRECT SUR LA VERTICALE"';
        '21="DIAGONAL CONDENSE ET CROUT"';
        '34="DIAGONAL ET SOLVEUR DIRECT SUR LA VERTICALE"'
CHOIX1 = '0="no preconditioning"';
         '2="diagonal"';
         '3="diagonal condensed"';
         '5="diagonal with absolute values"';
         '7="Crout"';
         '11="Gauss-Seidel EBE"';
         '13="Matrix defined by the user"';
         '14="diagonal and Crout"';
         '17="direct solver on the vertical"';
         '21="diagonal condensed and Crout"';
         '34="diagonal and direct solver on the vertical"'
RUBRIQUE = 'EQUATIONS, DIFFUSION';'GENERAL'
RUBRIQUE1 = 'EQUATIONS, DIFFUSION';'GENERAL'
NIVEAU = 1
COMPORT = 
'Foreground ("EQUATIONS, DIFFUSION*GENERAL")
IS BRUT (brown)'
AIDE = 'Permet de preconditionner le systeme relatif
a la diffusion du modele k-epsilon.'
AIDE1 = 'Choice of preconditioning for the diffusion of k and epsilon'

NOM = 'PRECONDITIONNEMENT POUR LA PROPAGATION'
NOM1 = 'PRECONDITIONING FOR PROPAGATION'
TYPE = ENTIER
INDEX = 31
MNEMO = 'SLVPRO%PRECON'
TAILLE = 0
DEFAUT = 2
DEFAUT1 = 2
CHOIX = '0="AUCUN"';
        '2="DIAGONAL"';
        '3="DIAGONAL CONDENSEE"';
        '5="DIAGONAL A VALEURS ABSOLUES"';
        '7="CROUT"';
        '11="GAUSS-SEIDEL EBE"';
        '13="MATRICE DEFINIE PAR L UTILISATEUR"';
        '14="DIAGONAL ET CROUT"';
        '17="SOLVEUR DIRECT SUR LA VERTICALE"';
        '21="DIAGONAL CONDENSE ET CROUT"';
        '34="DIAGONAL ET SOLVEUR DIRECT SUR LA VERTICALE"'
CHOIX1 = '0="no preconditioning"';
         '2="diagonal"';
         '3="diagonal condensed"';
         '5="diagonal with absolute values"';
         '7="Crout"';
         '11="Gauss-Seidel EBE"';
         '13="Matrix defined by the user"';
         '14="diagonal and Crout"';
         '17="direct solver on the vertical"';
         '21="diagonal condensed and Crout"';
         '34="diagonal and direct solver on the vertical"'
RUBRIQUE = 'EQUATIONS';'PROPAGATION'
RUBRIQUE1 = 'EQUATIONS';'PROPAGATION'
NIVEAU = 1
AIDE = 'Permet de preconditionner le systeme de l''etape de propagation
afin d''accelerer la convergence lors de sa resolution.
 - 0 : pas de preconditionnement;
 - 2 : preconditionnement diagonal.
 - 3 : preconditionnement diagonal-bloc
 - 7 : preconditionnement de Crout par element.
Certains preconditionnements sont cumulables
(les diagonaux 2 ou 3 avec les autres)
Pour cette raison on ne retient que les nombres premiers pour
designer les preconditionnements. Si l''on souhaite en cumuler
plusieurs on formera le produit des options correspondantes.'
AIDE1 = 'Choice of the preconditioning in the propagation step linear
system that the convergence is speeded up when it is being solved.
 0: no preconditioning
 2: diagonal preconditioning
 3: diagonal preconditioning with the condensed matrix
 7: Crout''s preconditioning per element (not implemented).
Some operations (either 2 or 3 diagonal preconditioning) can be
performed concurrently with the others.
Only prime numbers are therefore kept to denote the preconditioning
operations. When several of them are to be performed concurrently,
the product of relevant options shall be made.'

NOM = 'PRECONDITIONNEMENT POUR LA VITESSE VERTICALE'
NOM1 = 'PRECONDITIONING FOR VERTICAL VELOCITY'
TYPE = ENTIER
INDEX = 32
MNEMO = 'SLVW%PRECON'
TAILLE = 0
DEFAUT = 2
DEFAUT1 = 2
CHOIX = '0="AUCUN"';
        '2="DIAGONAL"';
        '3="DIAGONAL CONDENSEE"';
        '5="DIAGONAL A VALEURS ABSOLUES"';
        '7="CROUT"';
        '11="GAUSS-SEIDEL EBE"';
        '13="MATRICE DEFINIE PAR L UTILISATEUR"';
        '14="DIAGONAL ET CROUT"';
        '17="SOLVEUR DIRECT SUR LA VERTICALE"';
        '21="DIAGONAL CONDENSE ET CROUT"';
        '34="DIAGONAL ET SOLVEUR DIRECT SUR LA VERTICALE"'
CHOIX1 = '0="no preconditioning"';
         '2="diagonal"';
         '3="diagonal condensed"';
         '5="diagonal with absolute values"';
         '7="Crout"';
         '11="Gauss-Seidel EBE"';
         '13="Matrix defined by the user"';
         '14="diagonal and Crout"';
         '17="direct solver on the vertical"';
         '21="diagonal condensed and Crout"';
         '34="diagonal and direct solver on the vertical"'
RUBRIQUE = 'EQUATIONS';'GENERAL'
RUBRIQUE1 = 'EQUATIONS';'GENERAL'
NIVEAU = 1
AIDE = 'Permet de preconditionner le systeme relatif
au calcul de la vitesse verticale.'
AIDE1 = 'Choice of preconditioning for the diffusion of 
vertical velocity'

NOM = 'SOLVEUR POUR LA DIFFUSION DES VITESSES'
NOM1 = 'SOLVER FOR DIFFUSION OF VELOCITIES'
TYPE = ENTIER
INDEX = 33
MNEMO = 'SLVDVI%SLV'
TAILLE = 0
DEFAUT = 1
DEFAUT1 = 1
CHOIX = '1="GRADIENT CONJUGUE"';
        '2="RESIDU CONJUGUE"';
        '3="GRADIENT CONJUGUE SUR EQUATION NORMALE"';
        '4="ERREUR MINIMALE"';
        '5="GRADIENT CONJUGUE CARRE"';
        '6="CGSTAB"';
        '7="GMRES"';
        '8="SOLVEUR DIRECT"'
CHOIX1 = '1="conjugate gradient"';
         '2="conjugate residual"';
         '3="conjugate gradient on a normal equation"';
         '4="minimum error"';
         '5="squared conjugate gradient"';
         '6="cgstab"';
         '7="gmres"';
         '8="direct solver"'
CONTROLE = 1 ; 7
RUBRIQUE = 'EQUATIONS, DIFFUSION';'GENERAL'
RUBRIQUE1 = 'EQUATIONS, DIFFUSION';'GENERAL'
NIVEAU = 1
COMPORT = 
'Foreground ("EQUATIONS, DIFFUSION*GENERAL")
IS BRUT (brown)'
AIDE = 'Permet de choisir le solveur utilise pour la resolution de
la diffusion des vitesses U et V.'
AIDE1 = 'Choice of the solver for the diffusion of velocities U and V'

NOM = 'SOLVEUR POUR LA DIFFUSION DES TRACEURS'
NOM1 = 'SOLVER FOR DIFFUSION OF TRACERS'
TYPE = ENTIER
INDEX = 34
MNEMO = 'SLVDTA(ITRAC)%SLV'
TAILLE = 1
DEFAUT = 1
DEFAUT1 = 1
CHOIX = '1="GRADIENT CONJUGUE"';
        '2="RESIDU CONJUGUE"';
        '3="GRADIENT CONJUGUE SUR EQUATION NORMALE"';
        '4="ERREUR MINIMALE"';
        '5="GRADIENT CONJUGUE CARRE"';
        '6="CGSTAB"';
        '7="GMRES"';
        '8="SOLVEUR DIRECT"'
CHOIX1 = '1="conjugate gradient"';
         '2="conjugate residual"';
         '3="conjugate gradient on a normal equation"';
         '4="minimum error"';
         '5="squared conjugate gradient"';
         '6="cgstab"';
         '7="gmres"';
         '8="direct solver"'
CONTROLE = 1 ; 7
RUBRIQUE = 'EQUATIONS, DIFFUSION';'GENERAL'
RUBRIQUE1 = 'EQUATIONS, DIFFUSION';'GENERAL'
NIVEAU = 1
COMPORT = 
'Foreground ("EQUATIONS, DIFFUSION*GENERAL")
IS BRUT (brown)'
AIDE = 'Permet de choisir le solveur utilise pour la resolution de
la diffusion des traceurs.'
AIDE1 = 'Choice of the solver for the diffusion of tracers'

NOM = 'PERIODE DE COUPLAGE POUR TOMAWAC'
NOM1 = 'COUPLING PERIOD FOR TOMAWAC'
TYPE = ENTIER
INDEX = 35
MNEMO = 'PERCOU_WAC'
TAILLE = 0
DEFAUT = 1
DEFAUT1 = 1
RUBRIQUE = 'PARAMETRES NUMERIQUES';'GENERAL'
RUBRIQUE1 = 'NUMERICAL PARAMETERS';'GENERAL'
NIVEAU = 1
AIDE = 'pour eviter de faire le couplage a chaque pas de temps'
AIDE1 = 'to avoid coupling at every time-step'

NOM = 'SOLVEUR POUR LA DIFFUSION DU K-EPSILON'
NOM1 = 'SOLVER FOR DIFFUSION OF K-EPSILON'
TYPE = ENTIER
INDEX = 36
MNEMO = 'SLVDKE%SLV'
TAILLE = 0
DEFAUT = 1
DEFAUT1 = 1
CHOIX = '1="GRADIENT CONJUGUE"';
        '2="RESIDU CONJUGUE"';
        '3="GRADIENT CONJUGUE SUR EQUATION NORMALE"';
        '4="ERREUR MINIMALE"';
        '5="GRADIENT CONJUGUE CARRE"';
        '6="CGSTAB"';
        '7="GMRES"';
        '8="SOLVEUR DIRECT"'
CHOIX1 = '1="conjugate gradient"';
         '2="conjugate residual"';
         '3="conjugate gradient on a normal equation"';
         '4="minimum error"';
         '5="squared conjugate gradient"';
         '6="cgstab"';
         '7="gmres"';
         '8="direct solver"'
CONTROLE = 1 ; 7
RUBRIQUE = 'EQUATIONS, DIFFUSION';'GENERAL'
RUBRIQUE1 = 'EQUATIONS, DIFFUSION';'GENERAL'
NIVEAU = 1
COMPORT = 
'Foreground ("EQUATIONS, DIFFUSION*GENERAL")
IS BRUT (brown)'
AIDE = 'Permet de choisir le solveur utilise pour la resolution de
la diffusion du modele k-epsilon.'
AIDE1 = 'Choice of the solver for the diffusion of k and epsilon'

NOM = 'SOLVEUR POUR LA PROPAGATION'
NOM1 = 'SOLVER FOR PROPAGATION'
TYPE = ENTIER
INDEX = 37
MNEMO = 'SLVPRO%SLV'
TAILLE = 0
DEFAUT = 1
DEFAUT1 = 1
CHOIX = '1="GRADIENT CONJUGUE"';
        '2="RESIDU CONJUGUE"';
        '3="GRADIENT CONJUGUE SUR EQUATION NORMALE"';
        '4="ERREUR MINIMALE"';
        '5="GRADIENT CONJUGUE CARRE"';
        '6="CGSTAB"';
        '7="GMRES"';
        '8="SOLVEUR DIRECT"'
CHOIX1 = '1="conjugate gradient"';
         '2="conjugate residual"';
         '3="conjugate gradient on a normal equation"';
         '4="minimum error"';
         '5="squared conjugate gradient"';
         '6="cgstab"';
         '7="gmres"';
         '8="direct solver"'
CONTROLE = 1 ; 7
RUBRIQUE = 'EQUATIONS';'PROPAGATION'
RUBRIQUE1 = 'EQUATIONS';'PROPAGATION'
NIVEAU = 1
AIDE = 'Permet de choisir le solveur utilise pour la resolution de
l''etape de propagation.'
AIDE1 = 'Choice of the solver for the propagation equation'

NOM = 'SOLVEUR POUR LA VITESSE VERTICALE'
NOM1 = 'SOLVER FOR VERTICAL VELOCITY'
TYPE = ENTIER
INDEX = 38
MNEMO = 'SLVW%SLV'
TAILLE = 0
DEFAUT = 1
DEFAUT1 = 1
CHOIX = '1="GRADIENT CONJUGUE"';
        '2="RESIDU CONJUGUE"';
        '3="GRADIENT CONJUGUE SUR EQUATION NORMALE"';
        '4="ERREUR MINIMALE"';
        '5="GRADIENT CONJUGUE CARRE"';
        '6="CGSTAB"';
        '7="GMRES"';
        '8="SOLVEUR DIRECT"'
CHOIX1 = '1="conjugate gradient"';
         '2="conjugate residual"';
         '3="conjugate gradient on a normal equation"';
         '4="minimum error"';
         '5="squared conjugate gradient"';
         '6="cgstab"';
         '7="gmres"';
         '8="direct solver"'
CONTROLE = 1 ; 7
RUBRIQUE = 'EQUATIONS';'GENERAL'
RUBRIQUE1 = 'EQUATIONS';'GENERAL'
NIVEAU = 1
AIDE = 'Permet de choisir le solveur utilise pour le calcul de
la vitesse verticale.'
AIDE1 = 'Choice of the solver for the diffusion of vertical velocity'

NOM = 'MAXIMUM D''ITERATIONS POUR LA DIFFUSION DES VITESSES'
NOM1 = 'MAXIMUM NUMBER OF ITERATIONS FOR DIFFUSION OF VELOCITIES'
TYPE = ENTIER
INDEX = 39
MNEMO = 'SLVDVI%NITMAX'
TAILLE = 0
DEFAUT = 60
DEFAUT1 = 60
RUBRIQUE = 'EQUATIONS, DIFFUSION';'GENERAL'
RUBRIQUE1 = 'EQUATIONS, DIFFUSION';'GENERAL'
NIVEAU = 1
AIDE = 'Limite le nombre d''iterations du solveur a chaque pas
de temps pour le calcul de la diffusion de la vitesse.'
AIDE1 = 'Limits the number of iterations for the diffusion of
 velocities'

NOM = 'MAXIMUM D''ITERATIONS POUR LA DIFFUSION DES TRACEURS'
NOM1 = 'MAXIMUM NUMBER OF ITERATIONS FOR DIFFUSION OF TRACERS'
TYPE = ENTIER
INDEX = 40
MNEMO = 'SLVDTA(ITRAC)%NITMAX'
TAILLE = 0
DEFAUT = 60
DEFAUT1 = 60
RUBRIQUE = 'EQUATIONS, DIFFUSION';'TRACEUR'
RUBRIQUE1 = 'EQUATIONS, DIFFUSION';'TRACER'
NIVEAU = 1
COMPORT = 
'Foreground ("EQUATIONS, DIFFUSION*TRACEUR")
IS BRUT (brown)'
AIDE = 'Limite le nombre d''iterations du solveur a chaque pas
de temps pour le calcul de la diffusion des traceurs.'
AIDE1 = 'Limits the number of iterations for the diffusion of
 tracers'

NOM = 'PERIODE DE COUPLAGE POUR SISYPHE'
NOM1 = 'COUPLING PERIOD FOR SISYPHE'
TYPE = ENTIER
INDEX = 41
MNEMO = 'PERCOU_SIS'
TAILLE = 0
DEFAUT = 1
DEFAUT1 = 1
RUBRIQUE = 'PARAMETRES NUMERIQUES';'GENERAL'
RUBRIQUE1 = 'NUMERICAL PARAMETERS';'GENERAL'
NIVEAU = 1
AIDE = 'pour eviter de faire le couplage a chaque pas de temps'
AIDE1 = 'to avoid coupling at every time-step'

NOM = 'MAXIMUM D''ITERATIONS POUR LA DIFFUSION DU K-EPSILON'
NOM1 = 'MAXIMUM NUMBER OF ITERATIONS FOR DIFFUSION OF K-EPSILON'
TYPE = ENTIER
INDEX = 42
MNEMO = 'SLVDKE%NITMAX'
TAILLE = 0
DEFAUT = 200
DEFAUT1 = 200
RUBRIQUE = 'PARAMETRES NUMERIQUES, MODELE K-EPSILON'
RUBRIQUE1 = 'NUMERICAL PARAMETERS, K-EPSILON MODEL'
NIVEAU = 1
COMPORT = 
'Foreground ("PARAMETRES NUMERIQUES, MODELE K-EPSILON")
IS BRUT (blue)'
AIDE = 'Fixe le nombre maximum d''iterations accepte lors de la
resolution du systeme diffusion-termes sources du modele k-epsilon.'
AIDE1 = 'Limits the number of iterations for the diffusion of
 k and epsilon'

NOM = 'MAXIMUM D''ITERATIONS POUR LA PROPAGATION'
NOM1 = 'MAXIMUM NUMBER OF ITERATIONS FOR PROPAGATION'
TYPE = ENTIER
INDEX = 43
MNEMO = 'SLVPRO%NITMAX'
TAILLE = 0
DEFAUT = 200
DEFAUT1 = 200
RUBRIQUE = 'EQUATIONS';'PROPAGATION'
RUBRIQUE1 = 'EQUATIONS';'PROPAGATION'
NIVEAU = 1
COMPORT = 
'Foreground ("EQUATIONS*PROPAGATION")
IS BRUT (blue)'
AIDE = 'Les algorithmes utilises pour la resolution de l''etape de
propagation etant iteratifs; il est necessaire de limiter le nombre
d''iterations autorisees.
Remarque : un maximum de 40 iterations par pas de temps semble
raisonnable.'
AIDE1 = 'Since the algorithms used for solving the propagation step are
iterative, the allowed number of iterations should be limited.
NOTE: a maximum number of 40 iterations per time step seems to be
reasonable.'

NOM = 'MAXIMUM D''ITERATIONS POUR LA VITESSE VERTICALE'
NOM1 = 'MAXIMUM NUMBER OF ITERATIONS FOR VERTICAL VELOCITY'
TYPE = ENTIER
INDEX = 44
MNEMO = 'SLVW%NITMAX'
TAILLE = 0
DEFAUT = 100
DEFAUT1 = 100
RUBRIQUE = 'EQUATIONS';'GENERAL'
RUBRIQUE1 = 'EQUATIONS';'GENERAL'
NIVEAU = 1
AIDE = 'Fixe le nombre maximum d''iterations accepte lors de la
resolution du calcul de la vitesse verticale.'
AIDE1 = 'Limits the number of iterations for the diffusion of
 vertical velocity'

NOM = 'PROCESSEURS PARALLELES'
NOM1 = 'PARALLEL PROCESSORS'
TYPE = ENTIER
INDEX = 45
MNEMO = 'NCSIZE'
TAILLE = 0
DEFAUT = 0
DEFAUT1 = 0
RUBRIQUE = 'EQUATIONS';'GENERAL'
RUBRIQUE1 = 'EQUATIONS';'GENERAL'
NIVEAU = 1
AIDE = 'nombre de processeurs pour la decomposition en parallele'
AIDE1 = 'number of processors for domain decomposition'

NOM = 'TRAITEMENT SUR LES BANCS DECOUVRANTS POUR LES VITESSES'
NOM1 = 'TREATMENT ON TIDAL FLATS FOR VELOCITIES'
TYPE = ENTIER
INDEX = 46
MNEMO = 'TRBAVI'
TAILLE = 0
CHOIX = '0="FORCAGE A ZERO"';
        '1="VALEUR AVANT MASQUAGE"'
CHOIX1 = '0="FORCED TO ZERO"';
         '1="VALUE BEFORE MASKED"'
CONTROLE = 0 ; 1
DEFAUT = 0
DEFAUT1 = 0
RUBRIQUE = 'EQUATIONS';'GENERAL'
RUBRIQUE1 = 'EQUATIONS';'GENERAL'
NIVEAU = 1
AIDE = 'Traitement sur les bancs decouvrants a l''etape de diffusion'
AIDE1 = 'Treatment of tidal flats at diffusion step for velocities.'

NOM = 'TRAITEMENT SUR LES BANCS DECOUVRANTS POUR LES TRACEURS'
NOM1 = 'TREATMENT ON TIDAL FLATS FOR TRACERS'
TYPE = ENTIER
INDEX = 47
MNEMO = 'TRBATA'
TAILLE = 0
CHOIX = '0="FORCAGE A ZERO"';
        '1="VALEUR AVANT MASQUAGE"'
CHOIX1 = '0="FORCED TO ZERO"';
         '1="VALUE BEFORE MASKED"'
CONTROLE = 0 ; 1
DEFAUT = 0
DEFAUT1 = 0
RUBRIQUE = 'EQUATIONS';'GENERAL'
RUBRIQUE1 = 'EQUATIONS';'GENERAL'
NIVEAU = 1
AIDE = 'Traitement sur les bancs decouvrants a l''etape de diffusion'
AIDE1 = 'Treatment of tidal flats at diffusion step for tracers.'

NOM = 'CONDITION A LA LIMITE AU FOND'
NOM1 = 'BOUNDARY CONDITION ON THE BOTTOM'
TYPE = ENTIER
INDEX = 48
MNEMO = 'BC_BOTTOM'
TAILLE = 0
CHOIX = '1="LOI LOGARITHMIQUE POUR LES VITESSES AU FOND"';
        '2="VITESSES NULLES AU FOND"'
CHOIX1 = '1="LOG LAW FOR VELOCITIES ON BOTTOM"';
         '2="NO SLIP FOR VELOCITIES ON BOTTOM"'
CONTROLE = 1 ; 2 
DEFAUT = 1
DEFAUT1 = 1
RUBRIQUE = 'EQUATIONS';'GENERAL'
RUBRIQUE1 = 'EQUATIONS';'GENERAL'
NIVEAU = 1
AIDE = '1 : conditions de Neumann pour les vitesses au fond
2 : vitesses nulles au fond. Va de pair logiquement avec
 un bon raffinement du maillage au fond'
AIDE1 = 'If 1, Neumann conditions on velocity on bottom
If 2 velocities will be set to 0. Should be linked to
 a refined mesh near the bottom'

NOM = 'TRAITEMENT SUR LES BANCS DECOUVRANTS POUR LE K-EPSILON'
NOM1 = 'TREATMENT ON TIDAL FLATS FOR K-EPSILON'
TYPE = ENTIER
INDEX = 49
MNEMO = 'TRBAKE'
TAILLE = 0
CHOIX = '0="FORCAGE A ZERO"';
        '1="VALEUR AVANT MASQUAGE"'
CHOIX1 = '0="FORCED TO ZERO"';
         '1="VALUE BEFORE MASKED"'
CONTROLE = 0 ; 1
DEFAUT = 0
DEFAUT1 = 0
RUBRIQUE = 'EQUATIONS';'GENERAL'
RUBRIQUE1 = 'EQUATIONS';'GENERAL'
NIVEAU = 1
AIDE = 'Traitement sur les bancs decouvrants a l''etape de diffusion'
AIDE1 = 'Treatment of tidal flats at diffusion step for k and epsilon.'

NOM = 'PAS DE TEMPS'
NOM1 = 'TIME STEP'
TYPE = REEL
INDEX = 1
MNEMO = 'DT'
TAILLE = 0
DEFAUT = 1.
DEFAUT1 = 1.
RUBRIQUE = 'PARAMETRES NUMERIQUES';'DUREE DU CALCUL'
RUBRIQUE1 = 'NUMERICAL PARAMETERS';'DURATION'
NIVEAU = 1
AIDE = 'Definit le pas de temps en secondes.
Remarque : Pour une bonne precision, il est souhaitable de choisir
le pas de temps de telle sorte que le nombre de Courant de propagation
soit inferieur a 2, voire 3.
Ceci peut etre realisable en hydraulique fluviale, mais ne l''est
pratiquement jamais en hydraulique maritime ou l''on peut atteindre
des valeurs de 50.'
AIDE1 = 'Specifies the time step in seconds.'

NOM = 'ACCELERATION DE LA PESANTEUR'
NOM1 = 'GRAVITY ACCELERATION'
TYPE = REEL
INDEX = 2
MNEMO = 'GRAV'
TAILLE = 0
DEFAUT = 9.81
DEFAUT1 = 9.81
RUBRIQUE = 'CONSTANTES PHYSIQUES'
RUBRIQUE1 = 'PHYSICAL CONSTANTS'
COMPORT =
'Foreground ("CONSTANTES PHYSIQUES")
IS BRUT (yellow)'
NIVEAU = 1
AIDE = 'Fixe la valeur de l''acceleration de la pesanteur en m/s2.'
AIDE1 = 'Set the value of the acceleration due to gravity in m/s2.'

NOM = 'COEFFICIENT DE CORIOLIS'
NOM1 = 'CORIOLIS COEFFICIENT'
TYPE = REEL
INDEX = 3
MNEMO = 'FCOR'
TAILLE = 0
DEFAUT = 0.
DEFAUT1 = 0.
RUBRIQUE = 'CONSTANTES PHYSIQUES'
RUBRIQUE1 = 'PHYSICAL CONSTANTS'
NIVEAU = 1
COMPORT =
'Foreground ("CONSTANTES PHYSIQUES")
IS BRUT (brown)'
AIDE = 'Fixe la valeur du coefficient de la force de Coriolis.
Celui-ci doit etre calcule en fonction de la latitude l par la formule
     FCOR = 2w sin(l) , w etant la vitesse de rotation de la terre.
                        w = 7.27 10-5 rad/s
Les composantes de la force de Coriolis sont alors :
   FU =   FCOR x V
   FV = - FCOR x U'
AIDE1 = 'Sets the value of the Coriolis force coefficient, in cartesian
coordinates.
This coefficient, denoted FCOR in the code, should be equal to
2 w sin(l)d  where w denotes the earth angular speed of rotation
and l the latitude. w = 7.27 10-5 rad/sec
The Coriolis force components are then:
FU =  FCOR x V,
FV = -FCOR x U
In spherical coordinates, the latitudes are known and this'

NOM = 'COEFFICIENT D''INFLUENCE DU VENT'
NOM1 = 'COEFFICIENT OF WIND INFLUENCE'
TYPE = REEL
INDEX = 4
MNEMO = 'FAIR'
TAILLE = 0
DEFAUT = 0.
DEFAUT1 = 0.
RUBRIQUE = 'EQUATIONS';'VENT';'VALEURS NUMERIQUES'
RUBRIQUE1 = 'EQUATIONS';'WIND';'NUMERICS VALUES'
NIVEAU = 1
COMPORT =
'Foreground ("EQUATIONS*VENT*VALEURS NUMERIQUES")
IS BRUT (brown)'
AIDE = 'Fixe la valeur du coefficient d''entrainement du vent (cf.
Note de principe).'
AIDE1 = 'Sets the value of the wind driving coefficient.
Refer to principle note.'

NOM = 'VITESSE DU VENT SUIVANT X'
NOM1 = 'WIND VELOCITY ALONG X'
TYPE = REEL
INDEX = 5
MNEMO = 'FUAIR'
TAILLE = 0
DEFAUT = 0.
DEFAUT1 = 0.
RUBRIQUE = 'EQUATIONS';'VENT';'VALEURS NUMERIQUES'
RUBRIQUE1 = 'EQUATIONS';'WIND';'NUMERICS VALUES'
NIVEAU = 1
AIDE = 'Composante de la vitesse du vent suivant 
l''axe des x (m/s), si constante.'
AIDE1 = 'Wind velocity, component along x axis (m/s), if constant.'

NOM = 'VITESSE DU VENT SUIVANT Y'
NOM1 = 'WIND VELOCITY ALONG Y'
TYPE = REEL
INDEX = 6
MNEMO = 'FVAIR'
TAILLE = 0
DEFAUT = 0.
DEFAUT1 = 0.
RUBRIQUE = 'EQUATIONS';'VENT';'VALEURS NUMERIQUES'
RUBRIQUE1 = 'EQUATIONS';'WIND';'NUMERICS VALUES'
NIVEAU = 1
AIDE = 'Composante de la vitesse du vent suivant 
l''axe des y (m/s), si constante.'
AIDE1 = 'Wind velocity, component along y axis (m/s), if constant.'

NOM = 'TEMPERATURE DE L''AIR'
NOM1 = 'AIR TEMPERATURE'
TYPE = REEL
INDEX = 7
MNEMO = 'TAIR'
TAILLE = 0
DEFAUT = 10.
DEFAUT1 = 10.
RUBRIQUE = 'EQUATIONS';'AIR';'VALEURS NUMERIQUES'
RUBRIQUE1 = 'EQUATIONS';'AIR';'NUMERICS VALUES'
NIVEAU = 1
COMPORT =
'Foreground ("EQUATIONS*AIR*VALEURS NUMERIQUES")
IS BRUT (brown)'
AIDE = 'Fixe la temperature de l''air dans le cas d''echanges avec
l''atmosphere.'
AIDE1 = 'Air temperature in the case of exchanges with atmosphere'

NOM = 'COEFFICIENT DE DILATATION BETA POUR LES TRACEURS'
NOM1 = 'BETA EXPANSION COEFFICIENT FOR TRACERS'
TYPE = REEL
INDEX = 8
MNEMO = 'BETAC'
TAILLE = 1
DEFAUT=0.
DEFAUT1=0.
RUBRIQUE = 'CONSTANTES PHYSIQUES'
RUBRIQUE1 = 'PHYSICAL CONSTANTS'
NIVEAU = 1
AIDE = 'Unite : K-1.'
AIDE1 = 'Unit : K-1.'

NOM = 'VALEURS DE REFERENCE DES TRACEURS'
NOM1 = 'STANDARD VALUES FOR TRACERS'
TYPE = REEL
INDEX = 9
MNEMO = 'T0AC'
TAILLE = 1
DEFAUT=0.
DEFAUT1=0.
RUBRIQUE = 'EQUATIONS, TRACEUR'
RUBRIQUE1 = 'EQUATIONS, TRACER'
NIVEAU = 1
AIDE = 'Valeur du traceur pour laquelle la densite est donnee.'
AIDE1 = 'Reference value of tracers corresponding to given density'

NOM = 'MASSE VOLUMIQUE MOYENNE DE L''EAU'
NOM1 = 'AVERAGE WATER DENSITY'
TYPE = REEL
INDEX = 10
MNEMO = 'RHO0'
TAILLE = 0
DEFAUT = 1025.
DEFAUT1 = 1025.
RUBRIQUE = 'CONSTANTES PHYSIQUES'
RUBRIQUE1 = 'PHYSICAL CONSTANTS'
NIVEAU = 1
AIDE = 'Valeur de la densite moyenne dans le domaine, voir DRSURR'
AIDE1 = 'Average water density in the domain, see subroutine drsurr'

NOM = 'COEFFICIENT DE FROTTEMENT POUR LE FOND'
NOM1 = 'FRICTION COEFFICIENT FOR THE BOTTOM'
TYPE = REEL
INDEX = 11
MNEMO = 'RUGOF0'
TAILLE = 0
DEFAUT = 60.
DEFAUT1 = 60.
RUBRIQUE = 'EQUATIONS';'FROTTEMENT'
RUBRIQUE1 = 'EQUATIONS';'FRICTION'
NIVEAU = 1
COMPORT =
'Foreground ("EQUATIONS*FROTTEMENT")
IS BRUT (brown)'
AIDE = 'Fixe la valeur du coefficient de frottement au fond.'
AIDE1 = 'Friction coefficient on the bottom, if constant'

NOM = 'COEFFICIENT DE FROTTEMENT POUR LES PAROIS LATERALES'
NOM1 = 'FRICTION COEFFICIENT FOR LATERAL SOLID BOUNDARIES'
TYPE = REEL
INDEX = 12
MNEMO = 'RUGOL0'
TAILLE = 0
DEFAUT = 60.
DEFAUT1 = 60.
RUBRIQUE = 'EQUATIONS';'FROTTEMENT'
RUBRIQUE1 = 'EQUATIONS';'FRICTION'
NIVEAU = 1
COMPORT =
'Foreground ("EQUATIONS*FROTTEMENT")
IS BRUT (brown)'
AIDE = 'Fixe la valeur du coefficient de frottement sur les parois.'
AIDE1 = 'Friction coefficient on the lateral boundaries, if constant'

NOM = 'ZERO'
NOM1 = 'ZERO'
TYPE = REEL
INDEX = 13
MNEMO = ''
TAILLE = 0
DEFAUT = 1.E-20
DEFAUT1 = 1.E-20
RUBRIQUE = 'PARAMETRES NUMERIQUES';'GENERAL'
RUBRIQUE1 = 'NUMERICAL PARAMETERS';'GENERAL'
NIVEAU = -13
AIDE = 'Non active pour l''instant.'
AIDE1 = 'Not used so far'

NOM = 'VALEUR MINIMALE POUR LA HAUTEUR'
NOM1 = 'MINIMAL VALUE FOR DEPTH'
TYPE = REEL
INDEX = 14
MNEMO = 'HMIN'
TAILLE = 0
DEFAUT = -1000.
DEFAUT1 = -1000.
RUBRIQUE = 'PARAMETRES NUMERIQUES, VITESSE-CELERITE-HAUTEUR'
RUBRIQUE1 = 'NUMERICAL PARAMETERS, VELOCITY-CELERITY-HAUTEUR'
NIVEAU = 1
AIDE = 'Fixe la valeur minimale de H'
AIDE1 = 'Sets the minimum H value'

NOM = 'PROFONDEUR MOYENNE POUR LA LINEARISATION'
NOM1 = 'MEAN DEPTH FOR LINEARIZATION'
TYPE = REEL
INDEX = 15
MNEMO = 'HAULIN'
TAILLE = 0
DEFAUT = 0.
DEFAUT1 = 0.
RUBRIQUE = 'EQUATIONS';'HAUTEUR'
RUBRIQUE1 = 'EQUATIONS';'DEPTH'
NIVEAU = 1
COMPORT =
'Foreground ("EQUATIONS*HAUTEUR")
IS BRUT (brown)'
AIDE = 'Fixe la hauteur d''eau autour de laquelle s''effectue la
linearisation lorsque l''option PROPAGATION LINEARISEE est choisie.'
AIDE1 = 'Sets the water depth about which the linearization is made when
the LINEARIZED PROPAGATION OPTION is selected.'

NOM = 'COEFFICIENT DE DIFFUSION HORIZONTAL DES VITESSES'
NOM1 = 'COEFFICIENT FOR HORIZONTAL DIFFUSION OF VELOCITIES'
TYPE = REEL
INDEX = 16
MNEMO = 'DNUVIH'
TAILLE = 0
/ NOUVELLE VALEUR : 28/02/2006 (demande Sogreah) ancienne : 1.E-4
DEFAUT = 1.E-6
DEFAUT1 = 1.E-6
RUBRIQUE = 'EQUATIONS';'MODELE DE TURBULENCE';'VISCOSITE CONSTANTE'
RUBRIQUE1 = 'EQUATIONS';'TURBULENCE MODEL';'CONSTANT VISCOSITY'
NIVEAU = 1
COMPORT =
'Foreground ("EQUATIONS*MODELE DE TURBULENCE*VISCOSITE CONSTANTE")
IS BRUT (brown)'
AIDE = 'Fixe de facon uniforme pour l''ensemble du domaine;
la valeur du coefficient de diffusion de viscosite globale (dynamique +
turbulente). Cette valeur peut avoir une influence non negligeable sur
la forme et la taille des recirculations.'
AIDE1 = 'Sets, in an even way for the whole domain, the value of the
coefficient of global (dynamic+turbulent) viscosity 
for the horizontal direction. This value may
have a significant effect both on the shapes and sizes of
recirculation zones.'

NOM = 'COEFFICIENT DE DIFFUSION VERTICAL DES VITESSES'
NOM1 = 'COEFFICIENT FOR VERTICAL DIFFUSION OF VELOCITIES'
TYPE = REEL
INDEX = 17
MNEMO = 'DNUVIV'
TAILLE = 0
DEFAUT = 1.E-6
DEFAUT1 = 1.E-6
RUBRIQUE = 'EQUATIONS';'MODELE DE TURBULENCE';'VISCOSITE CONSTANTE'
RUBRIQUE1 = 'EQUATIONS';'TURBULENCE MODEL';'CONSTANT VISCOSITY'
NIVEAU = 1
COMPORT =
'Foreground ("EQUATIONS*MODELE DE TURBULENCE*VISCOSITE CONSTANTE")
IS BRUT (brown)'
AIDE = 'Fixe de facon uniforme pour l''ensemble du domaine;
la valeur du coefficient de diffusion de viscosite globale (dynamique +
turbulente). Cette valeur peut avoir une influence non negligeable sur
la forme et la taille des recirculations.'
AIDE1 = 'Sets, in an even way for the whole domain, the value of the
coefficient of global (dynamic+turbulent) viscosity
for the horizontal direction. This value may
have a significant effect both on the shapes and sizes of
recirculation zones.'

NOM = 'COEFFICIENT DE DIFFUSION HORIZONTAL DES TRACEURS'
NOM1 = 'COEFFICIENT FOR HORIZONTAL DIFFUSION OF TRACERS'
TYPE = REEL
INDEX = 18
MNEMO = 'DNUTAH'
TAILLE = 0
DEFAUT = 1.E-6
DEFAUT1 = 1.E-6
RUBRIQUE = 'EQUATIONS';'MODELE DE TURBULENCE';'VISCOSITE CONSTANTE'
RUBRIQUE1 = 'EQUATIONS';'TURBULENCE MODEL';'CONSTANT VISCOSITY'
NIVEAU = 1
COMPORT =
'Foreground ("EQUATIONS*MODELE DE TURBULENCE*VISCOSITE CONSTANTE")
IS BRUT (brown)'
AIDE = 'Fixe la valeur du coefficient de diffusion horizontal du traceur.
L''influence de ce parametre sur l''evolution du traceur dans
le temps est importante.'
AIDE1 = 'Sets the value of the horizontal diffusion of tracers.
This value may have a significant effect on the evolution of 
tracers in time.'

NOM = 'COEFFICIENT DE DIFFUSION VERTICAL DES TRACEURS'
NOM1 = 'COEFFICIENT FOR VERTICAL DIFFUSION OF TRACERS'
TYPE = REEL
INDEX = 19
MNEMO = 'DNUTAV'
TAILLE = 0
DEFAUT = 1.E-6
DEFAUT1 = 1.E-6
RUBRIQUE = 'EQUATIONS';'MODELE DE TURBULENCE';'VISCOSITE CONSTANTE'
RUBRIQUE1 = 'EQUATIONS';'TURBULENCE MODEL';'CONSTANT VISCOSITY'
NIVEAU = 1
COMPORT =
'Foreground ("EQUATIONS*MODELE DE TURBULENCE*VISCOSITE CONSTANTE")
IS BRUT (brown)'
AIDE = 'Fixe la valeur du coefficient de diffusion vertical du traceur.
L''influence de ce parametre sur l''evolution du traceur dans
le temps est importante.'
AIDE1 = 'Sets the value of the vertical diffusion of tracers.
This value may have a significant effect on the evolution of 
tracers in time.'

NOM = 'VALEURS INITIALES DES TRACEURS'
NOM1 = 'INITIAL VALUES OF TRACERS'
TYPE = REEL
INDEX = 20
MNEMO = 'TRAC0'
TAILLE = 2
RUBRIQUE = 'PARAMETRES NUMERIQUES'
RUBRIQUE1 = 'NUMERICAL PARAMETERS'
NIVEAU = 1
AIDE = 'Fixe la valeur initiale des traceurs.'
AIDE1 = 'Sets the initial values of tracers.'

NOM = 'PRECISION POUR LA DIFFUSION DU SEDIMENT'
NOM1 = 'ACCURACY FOR DIFFUSION OF SEDIMENT'
TYPE = REEL
INDEX = 21
MNEMO = 'SLVDSE%EPS'
TAILLE = 0
DEFAUT = 1.E-6
DEFAUT1 = 1.E-6
RUBRIQUE = 'EQUATIONS';'MODELE DE TURBULENCE';'VISCOSITE CONSTANTE'
RUBRIQUE1 = 'EQUATIONS';'TURBULENCE MODEL';'CONSTANT VISCOSITY'
NIVEAU = 1
AIDE = 'Fixe la precision demandee pour le calcul de la diffusion
des traceurs.'
AIDE1 = 'Sets the accuracy needed for the computation of the 
diffusion of the sediment.'

NOM = 'PRECISION POUR LA DIFFUSION DES VITESSES'
NOM1 = 'ACCURACY FOR DIFFUSION OF VELOCITIES'
TYPE = REEL
INDEX = 22
MNEMO = 'SLVDVI%EPS'
TAILLE = 0
DEFAUT = 1.E-5
DEFAUT1 = 1.E-5
RUBRIQUE = 'EQUATIONS';'MODELE DE TURBULENCE';'VISCOSITE CONSTANTE'
RUBRIQUE1 = 'EQUATIONS';'TURBULENCE MODEL';'CONSTANT VISCOSITY'
NIVEAU = 1
AIDE = 'Fixe la precision demandee pour le calcul de la diffusion
de la vitesse.'
AIDE1 = 'Sets the accuracy needed for the computation of the 
diffusion of the velocities.'

NOM = 'PRECISION POUR LA DIFFUSION DES TRACEURS'
NOM1 = 'ACCURACY FOR DIFFUSION OF TRACERS'
TYPE = REEL
INDEX = 23
MNEMO = 'SLVDTA(ITRAC)%EPS'
TAILLE = 0
DEFAUT = 1.E-6
DEFAUT1 = 1.E-6
RUBRIQUE = 'EQUATIONS';'MODELE DE TURBULENCE';'VISCOSITE CONSTANTE'
RUBRIQUE1 = 'EQUATIONS';'TURBULENCE MODEL';'CONSTANT VISCOSITY'
NIVEAU = 1
AIDE = 'Fixe la precision demandee pour le calcul de la diffusion
des traceurs.'
AIDE1 = 'Sets the accuracy needed for the computation of 
the diffusion of the tracers.'

NOM = 'SEUIL POUR CORRECTION DE VISCOSITE SUR BANCS DECOUVRANTS'
NOM1 = 'THRESHOLD FOR VISCOSITY CORRECTION ON TIDAL FLATS'
TYPE = REEL
INDEX = 24
MNEMO = 'HLIM'
TAILLE = 0
DEFAUT = 0.2
DEFAUT1 = 0.2
RUBRIQUE = 'PARAMETRES NUMERIQUES'
RUBRIQUE1 = 'NUMERICAL PARAMETERS'
NIVEAU = 1
AIDE = 'Pour les profondeurs inferieures, la viscosite sera
progressivement reduite. Voir le sous-programme VISCLIP'
AIDE1 = 'Below the threshold, viscosity will be progressively
cancelled. See subroutine VISCLIP'

NOM = 'PRECISION POUR LA DIFFUSION DU K-EPSILON'
NOM1 = 'ACCURACY FOR DIFFUSION OF K-EPSILON'
TYPE = REEL
INDEX = 25
MNEMO = 'SLVDKE%EPS'
TAILLE = 0
DEFAUT = 1.E-6
DEFAUT1 = 1.E-6
RUBRIQUE = 'EQUATIONS';'MODELE DE TURBULENCE';'VISCOSITE CONSTANTE'
RUBRIQUE1 = 'EQUATIONS';'TURBULENCE MODEL';'CONSTANT VISCOSITY'
NIVEAU = 1
AIDE = 'Fixe la precision demandee pour le calcul de la diffusion
du k-epsilon.'
AIDE1 = 'Sets the accuracy needed for the computation of the 
diffusion of the k-epsilon model.'

NOM = 'PRECISION POUR LA PROPAGATION'
NOM1 = 'ACCURACY FOR PROPAGATION'
TYPE = REEL
INDEX = 26
MNEMO = 'SLVPRO%EPS'
TAILLE = 0
DEFAUT = 1.E-6
DEFAUT1 = 1.E-6
RUBRIQUE = 'EQUATIONS';'PROPAGATION'
RUBRIQUE1 = 'EQUATIONS';'PROPAGATION'
NIVEAU = 1
AIDE = 'Fixe la precision demandee pour l''etape de propagation.'
AIDE1 = 'Sets the accuracy needed for the computation 
of the propagation step.'

NOM = 'PRECISION POUR LA VITESSE VERTICALE'
NOM1 = 'ACCURACY FOR VERTICAL VELOCITY'
TYPE = REEL
INDEX = 27
MNEMO = 'SLVW%EPS'
TAILLE = 0
DEFAUT = 1.E-6
DEFAUT1 = 1.E-6
RUBRIQUE = 'EQUATIONS';'GENERAL'
RUBRIQUE1 = 'EQUATIONS';'GENERAL'
NIVEAU = 1
AIDE = 'Fixe la precision demandee pour le calcul de la vitesse
verticale.'
AIDE1 = 'Sets the accuracy needed for the computation 
of the vertical velocity.'

NOM = 'IMPLICITATION POUR LA HAUTEUR'
NOM1 = 'IMPLICITATION FOR DEPTH'
TYPE = REEL
INDEX = 28
MNEMO = 'TETAH'
TAILLE = 0
DEFAUT = 0.55
DEFAUT1 = 0.55
RUBRIQUE = 'PARAMETRES NUMERIQUES, VITESSE-CELERITE-HAUTEUR'
RUBRIQUE1 = 'NUMERICAL PARAMETERS, VELOCITY-CELERITY-DEPTH'
NIVEAU = 1
CONTROLE = 0.5
AIDE = 'Fixe la valeur du coefficient d''implicitation sur C dans
l''etape de propagation (cf.  Note de principe).
Les valeurs inferieures a 0.5 donnent un schema instable.'
AIDE1 = 'Sets the value of the implicitation coefficient for c
in the propagation step (cf. Principe note).
The values lower than 0.5 give an instable scheme.'

NOM = 'IMPLICITATION POUR LES VITESSES'
NOM1 = 'IMPLICITATION FOR VELOCITIES'
TYPE = REEL
INDEX = 29
MNEMO = 'TETAU'
TAILLE = 0
DEFAUT = 1.
DEFAUT1 = 1.
RUBRIQUE = 'PARAMETRES NUMERIQUES, VITESSE-CELERITE-HAUTEUR'
RUBRIQUE1 = 'NUMERICAL PARAMETERS, VELOCITY-CELERITY-DEPTH'
NIVEAU = 1
AIDE = 'Fixe la valeur du coefficient d''implicitation sur la vitesse
dans l''etape de propagation (cf.  Note de principe).
Les valeurs inferieures a 0.5 donnent un schema instable.'
AIDE1 = 'Sets the value of the implicitation coefficient 
for the velocity 
in the propagation step (cf. Principe note).
The values lower than 0.5 give an instable scheme.'

NOM = 'MASS-LUMPING POUR LA HAUTEUR'
NOM1 = 'MASS-LUMPING FOR DEPTH'
TYPE = REEL
INDEX = 30
MNEMO = 'AGGLOH'
TAILLE = 0
DEFAUT = 0.
DEFAUT1 = 0.
RUBRIQUE = 'PARAMETRES NUMERIQUES, VITESSE-CELERITE-HAUTEUR'
RUBRIQUE1 = 'NUMERICAL PARAMETERS, VELOCITY-CELERITY-DEPTH'
NIVEAU = 1
AIDE = 'TELEMAC offre la possibilite d''effectuer du mass-lumping
sur H ou U.
Ceci revient a ramener tout ou partie (suivant la valeur de ce
coefficient) des matrices AM1 (H) ou AM2 (U) et AM3 (V) sur
leur diagonale.
Cette technique permet d''accelerer le code dans des proportions tres
importantes et de le rendre egalement beaucoup plus stable. Cependant
les solutions obtenues se trouvent lissees.
Ce parametre fixe le taux de mass-lumping effectue sur H.
Utilisation deconseillee.'
AIDE1 = 'TELEMAC offers the posibility to perform mass-lumping 
on H or U.
This gathers all or part (given the value of the coefficient)
of the AM1(H) or AM2(Ut) and AM3(V) matrices on their 
diagonal.
This technique can speed-up the code a lot and also render it 
more stable.
Yet, the solutions are smoothened.
This parameter sets the mass-lumping amount done for H.
Not recommended for use.'

NOM = 'MASS-LUMPING POUR LES VITESSES'
NOM1 = 'MASS-LUMPING FOR VELOCITIES'
TYPE = REEL
INDEX = 31
MNEMO = 'AGGLOU'
TAILLE = 0
DEFAUT = 0.
DEFAUT1 = 0.
RUBRIQUE = 'PARAMETRES NUMERIQUES, VITESSE-CELERITE-HAUTEUR'
RUBRIQUE1 = 'NUMERICAL PARAMETERS, VELOCITY-CELERITY-DEPTH'
NIVEAU = 1
AIDE = 'Fixe le taux de mass-lumping effectue sur la vitesse.
Utilisation deconseillee.'
AIDE1 = 'Sets the amount of mass-lumping that is performed on
the velocity.  Not recommended for use.'

NOM = 'DEBITS IMPOSES'
NOM1 = 'PRESCRIBED FLOWRATES'
TYPE = REEL
INDEX = 33
MNEMO = 'DEBIMP'
TAILLE = 10
RUBRIQUE = 'PARAMETRES NUMERIQUES'
RUBRIQUE1 = 'NUMERICAL PARAMETERS'
NIVEAU = 1
AIDE = 'Fixe le debit sur les frontieres a debit impose'
AIDE1 = 'Sets the value for flow rate on flow 
rate-imposed boundaries'

NOM = 'COTES IMPOSEES'
NOM1 = 'PRESCRIBED ELEVATIONS'
TYPE = REEL
INDEX = 34
MNEMO = 'COTIMP'
TAILLE = 10
RUBRIQUE = 'PARAMETRES NUMERIQUES'
RUBRIQUE1 = 'NUMERICAL PARAMETERS'
NIVEAU = 1
AIDE = 'Fixe la cote sur les frontieres a cote imposee'
AIDE1 = 'Sets the elevation on elevation-imposed boundaries'

NOM = 'VITESSES IMPOSEES'
NOM1 = 'PRESCRIBED VELOCITIES'
TYPE = REEL
INDEX = 35
MNEMO = 'VITIMP'
TAILLE = 10
RUBRIQUE = 'PARAMETRES NUMERIQUES'
RUBRIQUE1 = 'NUMERICAL PARAMETERS'
NIVEAU = 1
AIDE = 'Fixe la vitesse sur les frontieres a vitesse imposee'
AIDE1 = 'Sets the velocity on velocity-imposed boundaries'

NOM = 'TITRE'
NOM1 = 'TITLE'
TYPE = CARACTERE
INDEX = 1
MNEMO = 'TITCAS'
TAILLE = 0
DEFAUT = ' '
DEFAUT1 = ' '
RUBRIQUE = 'ENTREES-SORTIES, GENERALITES';'CALCUL'
RUBRIQUE1 = 'INPUT-OUTPUT, INFORMATION';'COMPUTATIONAL INFORMATION'
NIVEAU = 1
COMPORT =
'Foreground ("ENTREES-SORTIES, GENERALITES*CALCUL")
IS BRUT (red)'
AIDE = 'Titre du cas etudie. Ce titre figurera sur les dessins.'
AIDE1 = 'Title of the case being considered. This title will be marked
on the drawings.'

NOM = 'VARIABLES POUR LES SORTIES GRAPHIQUES 3D'
NOM1 = 'VARIABLES FOR 3D GRAPHIC PRINTOUTS'
TYPE = CARACTERE
INDEX = 2
MNEMO = 'SORT3D'
DEFAUT = 'Z,U,V,W'
DEFAUT1 = 'Z,U,V,W'
CHOIX = 'U="vitesse suivant l''axe des x (m/s)"';
'V="vitesse suivant l''axe des y (m/s)"';
'W="vitesse suivant l''axe des z (m/s)"';
'Z="cote z (m)"';
'TA1="concentration du traceur 1"';
'TA2="concentration du traceur 2"';
'TA3="concentration du traceur 3"';
'TA4="concentration du traceur 4"';
'TA5="concentration du traceur 5"';
'TA6="concentration du traceur 6"';
'TA7="concentration du traceur 7"';
'TA8="concentration du traceur 8"';
'TA9="concentration du traceur 9"';
'TA*="concentrations des traceurs de 1 a 9"';
'TA**="concentrations des traceurs de 10 a 99"';
'NUX="viscosite pour U et V suivant l''axe des x (m2/s)"';
'NUY="viscosite pour U et V suivant l''axe des y (m2/s)"';
'NUZ="viscosite pour U et V suivant l''axe des z (m2/s)"';
'NAX="viscosites pour les tr. suivant l''axe des x (m2/s)"';
'NAY="viscosites pour les tr. suivant l''axe des y (m2/s)"';
'NAZ="viscosites pour les tr. suivant l''axe des z (m2/s)"';
'RI="nombre de Richardson en cas de modele de longueur de melange"';
'K="energie turbulente du modele k-epsilon (J/kg)"';
'EPS="dissipation de l''energie turbulente (W/kg)"';
'DP="pression dynamique (multipliee par DT/RHO)"';
'RHO="densite relative"';
'P1="variable privee 1"';
'P2="variable privee 2"';
'P3="variable privee 3"';
'P4="variable privee 4"'
CHOIX1 = 'U="velocity along x axis (m/s)"';
'V="velocity along y axis (m/s)"';
'W="velocity along z axis (m/s)"';
'Z="elevation z (m)"';
'TA1="concentration for tracer 1"';
'TA2="concentration for tracer 2"';
'TA3="concentration for tracer 3"';
'TA4="concentration for tracer 4"';
'TA5="concentration for tracer 5"';
'TA6="concentration for tracer 6"';
'TA7="concentration for tracer 7"';
'TA8="concentration for tracer 8"';
'TA9="concentration for tracer 9"';
'TA*="concentrations for tracers from 1 to 9"';
'TA**="concentrations for tracers from 10 to 99"';
'NUX="viscosity for U and V along x axis (m2/s)"';
'NUY="viscosity for U and V along y axis (m2/s)"';
'NUZ="viscosity for U and V along z axis (m2/s)"';
'NAX="viscosity for tracers along x axis (m2/s)"';
'NAY="viscosity for tracers along y axis (m2/s)"';
'NAZ="viscosity for tracers along z axis (m2/s)"';
'RI="Richardson number in case of mixing length model"';
'K="turbulent energie for k-epsilon model (J/kg)"';
'EPS="dissipation of turbulent energie (W/kg)"';
'DP="dynamic pressure (multiplied by DT/RHO)"';
'RHO="relative density"';
'P1="private variable 1"';
'P2="private variable 2"';
'P3="private variable 3"';
'P4="private variable 4"'
RUBRIQUE = 'ENTREES-SORTIES, GRAPHIQUES ET LISTING'
RUBRIQUE1 = 'INPUT-OUTPUT, GRAPHICS AND LISTING'
NIVEAU = 1
COMPOSE=','
APPARENCE = 'packing IS XmPACK_COLUMN' ;
    'numColumns IS 23';'LISTE IS EDITABLE'
AIDE = 'Noms des variables que l''utilisateur veut ecrire dans
le fichier des resultats.
Le choix des separateurs est libre.
Les possibilites offertes sont les suivantes :
   - U   : vitesse suivant l''axe des x (m/s),
   - V   : vitesse suivant l''axe des y (m/s),
   - W   : vitesse suivant l''axe des z (m/s),
   - Z   : cote z (m),
   - TAx : concentrations des traceurs,
   - NUX : viscosite pour U et V suivant l''axe des x (m2/s),
   - NUY : viscosite pour U et V suivant l''axe des y (m2/s),
   - NUZ : viscosite pour U et V suivant l''axe des z (m2/s),
   - NAX : viscosites pour les tr. suivant l''axe des x (m2/s),
   - NAY : viscosites pour les tr. suivant l''axe des y (m2/s),
   - NAZ : viscosites pour les tr. suivant l''axe des z (m2/s),
   - RI  : nombre de Richardson en cas de modele de longueur de melange,
   - K   : energie turbulente du modele k-epsilon (J/kg),
   - EPS : dissipation de l''energie turbulente (W/kg),
   - RHO : densite relative,
   - P1  : variable privee 1,
   - P2  : variable privee 2,
   - P3  : variable privee 3,
   - P4  : variable privee 4'
AIDE1 = 'Names of variables to be written in the results file.
Free choice of separator. You can ask for:
   - U   : velocity along x (m/s),
   - V   : velocity along y (m/s),
   - W   : velocity along z (m/s),
   - Z   : elevation z (m),
   - TAx : concentration of tracers,
   - NUX : viscosity for U and V along x (m2/s),
   - NUY : viscosity for U and V along y (m2/s),
   - NUZ : viscosity for U and V along z (m2/s),
   - NAX : viscosity for tracers along x (m2/s),
   - NAY : viscosity for tracers along y (m2/s),
   - NAZ : viscosity for tracers along z (m2/s),
   - RI  : Richardson number for mixing length model,
   - K   : turbulent kinetic energy for k-epsilon model (J/kg),
   - EPS : dissipation of turbulent kinetic energy (W/kg),
   - RHO : relative density,
   - P1  : private variable 1,
   - P2  : private variable 2,
   - P3  : private variable 3,
   - P4  : private variable 4'

NOM = 'VARIABLES POUR LES SORTIES GRAPHIQUES 2D'
NOM1 = 'VARIABLES FOR 2D GRAPHIC PRINTOUTS'
TYPE = CARACTERE
INDEX = 3
MNEMO = 'SORT2D'
DEFAUT = 'U,V,H,B'
DEFAUT1 = 'U,V,H,B'
CHOIX = 'U="vitesse moyenne suivant l''axe des x (m/s)"';
        'V="vitesse moyenne suivant l''axe des y (m/s)"';
        'C="celerite (m/s)"';
        'H="hauteur d''eau (m)"';
        'S="cote de surface libre (m)"';
        'B="cote du fond (m)"';
'TA1="TAx concentrations des traceurs, x numero du traceur"';
        'F="nombre de Froude (m)"';
        'Q="debit scalaire (m2/s)"';
        'I="debit suivant x (m2/s)"';
        'J="debit suivant y (m2/s)"';
        'M="norme de la vitesse (m/s)"';
        'X="vent suivant l''axe des x (m/s)"';
        'Y="vent suivant l''axe des y (m/s)"';
        'P="pression atmospherique (Pa)"';
        'W="coefficient de frottement"';
        'RB="cote des fonds non erodables (m)"';
        'FD="epaisseur des depots frais (m)"';
        'EF="flux d''erosion (kg/m3/s)"';
        'DP="probabilite de depot"';
        'PRIVE1="tableau de travail PRIVE 1"';
        'PRIVE2="tableau de travail PRIVE 2"';
        'PRIVE3="tableau de travail PRIVE 3"';
        'PRIVE4="tableau de travail PRIVE 4"';
        'QS="debit solide (m2/s)"';
        'QSX="debit solide suivant x (m2/s)"';
        'QSY="debit solide suivant y (m2/s)"';
        'US="vitesse de frottement (m/s)"';
        'MAXZ="valeur maximum de la cote de 
               l eau au cours du calcul (m)"';
        'TMXZ="temps correspondant a ce niveau maximum (s)"'
CHOIX1 = 'U="depth averaged velocity along x axis (m/s)"';
         'V="depth averaged velocity along y axis (m/s)"';
         'C="celerity (m/s)"';
         'H="water depth (m)"';
         'S="free surface elevation (m)"';
         'B="bottom elevation (m)"';
'TA1="TAx concentrations for tracers, x is the tracer number"';
        'F="Froude number (m)"';
        'Q="scalar discharge (m2/s)"';
        'I="discharge along x (m2/s)"';
        'J="discharge along y (m2/s)"';
        'M="norm of velocity (m/s)"';
        'X="wind along x axis (m/s)"';
        'Y="wind along y axis (m/s)"';
        'P="atmospheric pressure (Pa)"';
        'W="friction coefficient"';
        'RB="non erodible bottom elevation (m)"';
        'FD="thickness of the fresh deposits (m)"';
        'EF="erosion rate (kg/m3/s)"';
        'DP="probability of deposition"';
        'PRIVE1="work array PRIVE 1"';
        'PRIVE2="work array PRIVE 2"';
        'PRIVE3="work array PRIVE 3"';
        'PRIVE4="work array PRIVE 4"';
        'QS="solid discharge (m2/s)"';
        'QSX="solid discharge along x (m2/s)"';
        'QSY="solid discharge along y (m2/s)"';
        'US="friction velocity (m/s)"';
        'MAXZ="maximum value of the free surface 
               elevation during the computation (m)"';
        'TMXZ="time corresponding to this maximum elevation (s)"'
RUBRIQUE = 'ENTREES-SORTIES, GRAPHIQUES ET LISTING'
RUBRIQUE1 = 'INPUT-OUTPUT, GRAPHICS AND LISTING'
NIVEAU = 1
COMPOSE=','
AIDE = 'Noms des variables que l''utilisateur veut ecrire dans
le fichier des resultats.
Chaque variable est representee par une lettre.
Le choix des separateurs est libre.
Les possibilites offertes sont les suivantes :
        U="vitesse moyenne suivant l''axe des x (m/s)"
        V="vitesse moyenne suivant l''axe des y (m/s)"
        C="celerite (m/s)"
        H="hauteur d''eau (m)"
        S="cote de surface libre (m)"
        B="cote du fond (m)"
        F="nombre de Froude (m)"
        Q="debit scalaire (m2/s)"
        I="debit suivant x (m2/s)"
        J="debit suivant y (m2/s)"
        M="norme de la vitesse (m/s)"
        X="vent suivant l''axe des x (m/s)"
        Y="vent suivant l''axe des y (m/s)"
        P="pression atmospherique (Pa)"
        W="coefficient de frottement"
        RB="cote des fonds non erodables (m)"
        FD="epaisseur des depots frais (m)"
        EF="flux d''erosion (kg/m3/s)"
        DP="probabilite de depot"
        PRIVE1="tableau de travail PRIVE 1"
        PRIVE2="tableau de travail PRIVE 2"
        PRIVE3="tableau de travail PRIVE 3"
        PRIVE4="tableau de travail PRIVE 4"
        US="vitesse de frottement (m/s)"
        MAXZ="valeur maximum de la cote de l eau au cours du calcul (m)"
        TMXZ="temps correspondant a ce niveau maximum (s)"'
AIDE1 = 'Names of variables that may be written in the
2D result file.
Every variable is represented by a group of letters with
any separator between them , ; or blank
possibilities are the following:
        U="depth averaged velocity along x axis (m/s)"
        V="depth averaged velocity along y axis (m/s)"
        C="celerity (m/s)"
        H="water depth (m)"
        S="free surface elevation (m)"
        B="bottom elevation (m)"
        F="Froude number (m)"
        Q="scalar discharge (m2/s)"
        I="discharge along x (m2/s)"
        J="discharge along y (m2/s)"
        M="norm of velocity (m/s)"
        X="wind along x axis (m/s)"
        Y="wind along y axis (m/s)"
        P="atmospheric pressure (Pa)"
        W="friction coefficient"
        RB="non erodible bottom elevation (m)"
        FD="thickness of the fresh deposits (m)"
        EF="erosion rate (kg/m3/s)"
        DP="probability of deposition"
        PRIVE1="work array PRIVE 1"
        PRIVE2="work array PRIVE 2"
        PRIVE3="work array PRIVE 3"
        PRIVE4="work array PRIVE 4"
        US="friction velocity (m/s)"
        MAXZ="maximum value of the free surface 
              elevation during the computation (m)"
        TMXZ="time corresponding to this maximum elevation (s)"'

NOM = 'USER CRAY'
NOM1 = 'USER ON CRAY'
TYPE = CARACTERE
INDEX = 4
MNEMO = ''
TAILLE = 0
DEFAUT = ' '
DEFAUT1 = ' '
RUBRIQUE = 'ENTREES-SORTIES, GENERALITES';'ENVIRONNEMENT'
RUBRIQUE1 = 'INPUT-OUTPUT, INFORMATION';'COMPUTATION ENVIRONMENT'
NIVEAU = 2
COMPORT = 
'Foreground ("ENTREES-SORTIES, GENERALITES*ENVIRONNEMENT")
IS BRUT (red)'
AIDE = 'Userid CRAY de l''utilisateur.'
AIDE1 = 'User''s identity on CRAY.'

NOM = 'MOT DE PASSE CRAY'
NOM1 = 'PASSWORD ON CRAY'
TYPE = CARACTERE
INDEX = 5
MNEMO = ''
TAILLE = 0
DEFAUT = ' '
DEFAUT1 = ' '
RUBRIQUE = 'ENTREES-SORTIES, GENERALITES';'ENVIRONNEMENT'
RUBRIQUE1 = 'INPUT-OUTPUT, INFORMATION';'COMPUTATION ENVIRONMENT'
NIVEAU = 2
AIDE = 'Mot de passe associe a l''USER CRAY.'
AIDE1 = 'Password related to USER CRAY.'

NOM = 'FICHIER DE GEOMETRIE'
NOM1 = 'GEOMETRY FILE'
TYPE = CARACTERE
INDEX = 6
MNEMO = 'T3D_FILES(T3DGEO)%NAME'
TAILLE = 0
SUBMIT = 'T3DGEO-READ-01;T3DGEO;OBLIG;BIN;LIT;SELAFIN-GEOM'
/DEFAUT = ' '
/DEFAUT1 = ' '
RUBRIQUE = 'ENTREES-SORTIES, FICHIERS';'NOMS'
RUBRIQUE1 = 'INPUT-OUTPUT, FILES';'NAMES'
NIVEAU = 1
COMPORT =
'Foreground ("ENTREES-SORTIES, FICHIERS*NOMS")
IS BRUT (red)'
AIDE = 'Nom du fichier contenant le maillage du calcul a realiser.'
AIDE1 = 'Name of the file containing the mesh. This file may also
contain the topography and the friction coefficients.'

NOM = 'FICHIER FORTRAN'
NOM1 = 'FORTRAN FILE'
TYPE = CARACTERE
INDEX = 7
MNEMO = 'T3D_FILES(T3DFORT)%NAME'
TAILLE = 0
SUBMIT = 'INUTILE;t3dfort.f;FACUL;ASC;LIT;FORTRAN'
DEFAUT = 'DEFAUT'
DEFAUT1 = 'DEFAUT'
RUBRIQUE = 'ENTREES-SORTIES, FICHIERS';'NOMS'
RUBRIQUE1 = 'INPUT-OUTPUT, FILES';'NAMES'
NIVEAU = 1
AIDE = 'Nom du fichier FORTRAN a soumettre.'
AIDE1 = 'Name of FORTRAN file to be submitted.'

NOM = 'FICHIER DES PARAMETRES'
NOM1 = 'STEERING FILE'
TYPE = CARACTERE
INDEX = 8
MNEMO = ''
TAILLE = 0
SUBMIT = 'INUTILE;T3DCAS;OBLIG;ASC;LIT;CAS'
DEFAUT = ' '
DEFAUT1 = ' '
RUBRIQUE = 'ENTREES-SORTIES, FICHIERS';'NOMS'
RUBRIQUE1 = 'INPUT-OUTPUT, FILES';'NAMES'
NIVEAU = 1
AIDE = 'Nom du fichier contenant les parametres du calcul a realiser.'
AIDE1 = 'Name of the file containing the parameters of the computation
Written by the user.'

NOM = 'FICHIER DES CONDITIONS AUX LIMITES'
NOM1 = 'BOUNDARY CONDITIONS FILE'
TYPE = CARACTERE
INDEX = 9
MNEMO = 'T3D_FILES(T3DCLI)%NAME'
TAILLE = 0
SUBMIT = 'T3DLIM-READ-07;T3DCLI;OBLIG;ASC;LIT;CONLIM'
/DEFAUT = ' '
/DEFAUT1 = ' '
RUBRIQUE = 'ENTREES-SORTIES, FICHIERS';'NOMS'
RUBRIQUE1 = 'INPUT-OUTPUT, FILES';'NAMES'
NIVEAU = 1
AIDE = 'Nom du fichier contenant les types de conditions aux limites.
Ce fichier est rempli de facon automatique par le mailleur au moyen de
couleurs affectees aux noeuds des frontieres du domaine de calcul.'
AIDE1 = 'Name of the file containing the types of boundary conditions.
This file is filled automatically by the mesh generator through
colours that are assigned to the boundary nodes.'

NOM = 'FICHIER DU CALCUL PRECEDENT'
NOM1 = 'PREVIOUS COMPUTATION FILE'
TYPE = CARACTERE
INDEX = 10
MNEMO = 'T3D_FILES(T3DPRE)%NAME'
TAILLE = 0
SUBMIT = 'T3DPRE-READ-04;T3DPRE;FACUL;BIN;LIT;SELAFIN'
DEFAUT = ' '
DEFAUT1 = ' '
RUBRIQUE = 'ENTREES-SORTIES, FICHIERS';'NOMS'
RUBRIQUE1 = 'INPUT-OUTPUT, FILES';'NAMES'
NIVEAU = 1
AIDE = 'Nom d''un fichier contenant les resultats d''un calcul precedent
realise sur le meme maillage et dont le dernier pas de temps enregistre
va fournir les conditions initiales pour une suite de de calcul.'
AIDE1 = 'Name of a file containing the results of an earlier computation
which was made on the same mesh. The last recorded time step will provid
the initial conditions for the new computation.'

NOM = 'FICHIER DES RESULTATS 3D'
NOM1 = '3D RESULT FILE'
TYPE = CARACTERE
INDEX = 11
MNEMO = 'T3D_FILES(T3DRES)%NAME'
TAILLE = 0
SUBMIT = 'T3DRES-READWRITE-08;T3DRES;FACUL;BIN;ECR;SELAFIN'
DEFAUT = ' '
DEFAUT1 = ' '
RUBRIQUE = 'ENTREES-SORTIES, FICHIERS';'NOMS'
RUBRIQUE1 = 'INPUT-OUTPUT, FILES';'NAMES'
NIVEAU = 1
AIDE = 'Nom du fichier dans lequel seront ecrits les resultats 3D du calcul
avec la periodicite donnee par le mot cle ''PERIODE POUR LES SORTIES
GRAPHIQUES''.'
AIDE1 = 'Name of the file into which the computation results shall be
written,
the periodicity being given by the key-word:
GRAPHIC PRINTOUT PERIOD.'

NOM = 'NUMERO DE VERSION'
NOM1 = 'RELEASE'
TYPE = CARACTERE
INDEX = 12
MNEMO = ''
TAILLE = 0
DEFAUT = 'V6P3'
DEFAUT1 = 'V6P3'
RUBRIQUE = 'ENTREES-SORTIES, GENERALITES';'CALCUL'
RUBRIQUE1 = 'INPUT-OUTPUT, INFORMATION';'COMPUTATIONAL INFORMATION'
NIVEAU = 1
AIDE = 'Numero de version des bibliotheques utilisees par TELEMAC.
Si ce nom commence par D il s''agit de l''option Debug (exemple DV2P2)
Si ce nom commence par F il s''agit de l''option Flowtrace'
AIDE1 = ''

NOM = 'NUMERO DE VERSION DE TELEMAC-2D'
NOM1 = 'TELEMAC-2D RELEASE'
TYPE = CARACTERE
INDEX = 13
MNEMO = ''
TAILLE = 0
DEFAUT = 'V6P3'
DEFAUT1 = 'V6P3'
RUBRIQUE = 'ENTREES-SORTIES, GENERALITES';'CALCUL'
RUBRIQUE1 = 'INPUT-OUTPUT, INFORMATION';'COMPUTATIONAL INFORMATION'
NIVEAU = 1
AIDE = 'Numero de version des bibliotheques utilisees par TELEMAC.
Si ce nom commence par D il s''agit de l''option Debug (exemple DV3P2)
Si ce nom commence par F il s''agit de l''option Flowtrace'
AIDE1 = ''

NOM = 'TEMPS MACHINE CRAY'
NOM1 = 'CPU TIME ON CRAY'
TYPE = CARACTERE
INDEX = 14
MNEMO = ''
TAILLE = 0
DEFAUT = '10'
DEFAUT1 = '10'
RUBRIQUE = 'ENTREES-SORTIES, GENERALITES';'ENVIRONNEMENT'
RUBRIQUE1 = 'INPUT-OUTPUT, INFORMATION';'COMPUTATIONAL INFORMATION'
NIVEAU = 2
AIDE = 'Temps CPU (en secondes) alloue pour la realisation du calcul.
Attention; il s''agit bien d''une chaine de caracteres.'
AIDE1 = 'C.P.U. time (in seconds) allowed for making the computation.
Please note that this keyword is a string of characters.'

NOM = 'PLACE MEMOIRE CRAY'
NOM1 = 'MEMORY SPACE ON CRAY'
TYPE = CARACTERE
INDEX = 15
MNEMO = ''
TAILLE = 0
DEFAUT = '1500000W'
DEFAUT1 = '1500000W'
RUBRIQUE = 'ENTREES-SORTIES, GENERALITES';'ENVIRONNEMENT'
RUBRIQUE1 = 'INPUT-OUTPUT, INFORMATION';'COMPUTATIONAL INFORMATION'
NIVEAU = 2
AIDE = 'Place memoire (en mots de 8 octets) reservee en machine pour la
realisation du calcul.'
AIDE1 = 'Storage capacity (in words of 8 bytes) reserved in machine for
making the computation.'

NOM = 'FICHIER DES FONDS'
NOM1 = 'BOTTOM TOPOGRAPHY FILE'
TYPE = CARACTERE
INDEX = 16
MNEMO = 'T3D_FILES(T3DFON)%NAME'
TAILLE = 0
SUBMIT = 'T3DFON-READ-23;T3DFON;FACUL;ASC;LIT;SCAL'
DEFAUT = ' '
DEFAUT1 = ' '
RUBRIQUE = 'ENTREES-SORTIES, FICHIERS';'NOMS'
RUBRIQUE1 = 'INPUT-OUTPUT, FILES';'NAMES'
NIVEAU = 1
AIDE = 'Nom du fichier eventuel contenant la bathymetrie associee au
maillage.
Si ce mot-cle est utilise, c''est cette bathymetrie qui sera utilisee
pour le calcul.'
AIDE1 = 'Name of the possible file containing the bathymetric data.
Where this keyword is used, these bathymetric data shall be used in
the computation.'

NOM = 'FICHIER POUR SCOPE'
NOM1 = 'FILE FOR SCOPE'
TYPE = CARACTERE
INDEX = 17
MNEMO = 'T3D_FILES(T3DSCO)%NAME'
TAILLE = 0
SUBMIT = 'T3DSCO-WRITE-32;T3DSCO;FACUL;ASC;ECR;PARAL'
DEFAUT = ' '
DEFAUT1 = ' '
RUBRIQUE = 'ENTREES-SORTIES, FICHIERS';'NOMS'
RUBRIQUE1 = 'INPUT-OUTPUT, FILES';'NAMES'
NIVEAU = 1
AIDE = 'Nom du fichier eventuel pour Scope.'
AIDE1 = 'Name of the potential file for Scope.'

NOM = 'FICHIER DES RESULTATS 2D'
NOM1 = '2D RESULT FILE'
TYPE = CARACTERE
INDEX = 18
MNEMO = 'T3D_FILES(T3DHYD)%NAME'
TAILLE = 0
SUBMIT = 'T3DHYD-WRITE-18;T3DHYD;FACUL;BIN;ECR;SELAFIN'
DEFAUT = ' '
DEFAUT1 = ' '
RUBRIQUE = 'ENTREES-SORTIES, FICHIERS';'NOMS'
RUBRIQUE1 = 'INPUT-OUTPUT, FILES';'NAMES'
NIVEAU = 1
AIDE = 'Nom du fichier dans lequel seront ecrits les resultats 2D du 
calcul avec la periodicite donnee par le mot cle ''PERIODE 
POUR LES SORTIES GRAPHIQUES''.'
AIDE1 = 'Name of the file into which the 2D results of the computation 
are written with a period given by the keyword GRAPHIC PRINTOUT PERIOD.'

NOM = 'FICHIER DE DONNEES FORMATE 1'
NOM1 = 'FORMATTED DATA FILE 1'
TYPE = CARACTERE
INDEX = 19
MNEMO = 'T3D_FILES(T3DFO1)%NAME'
TAILLE = 0
SUBMIT = 'T3DFO1-READ-26;T3DFO1;FACUL;ASC;LIT;SCAL'
DEFAUT = ' '
DEFAUT1 = ' '
RUBRIQUE = 'ENTREES-SORTIES, FICHIERS';'NOMS'
RUBRIQUE1 = 'INPUT-OUTPUT, FILES';'NAMES'
NIVEAU = 1
AIDE = 'Fichier de donnees formate mis a la disposition de
l''utilisateur.
Les donnees de ce fichier seront a lire sur le canal 60.'
AIDE1 = 'Formatted data file available to the user'

NOM = 'FICHIER DE DONNEES FORMATE 2'
NOM1 = 'FORMATTED DATA FILE 2'
TYPE = CARACTERE
INDEX = 20
MNEMO = 'T3D_FILES(T3DFO2)%NAME'
TAILLE = 0
SUBMIT = 'T3DFO2-READ-27;T3DFO2;FACUL;ASC;LIT;SCAL'
DEFAUT = ' '
DEFAUT1 = ' '
RUBRIQUE = 'ENTREES-SORTIES, FICHIERS';'NOMS'
RUBRIQUE1 = 'INPUT-OUTPUT, FILES';'NAMES'
NIVEAU = 1
AIDE = 'Fichier de donnees formate mis a la disposition de
l''utilisateur'
AIDE1 = 'Formatted data file available to the user'

NOM = 'FICHIER DE DONNEES BINAIRE 1'
NOM1 = 'BINARY DATA FILE 1'
TYPE = CARACTERE
INDEX = 21
MNEMO = 'T3D_FILES(T3DBI1)%NAME'
TAILLE = 0
SUBMIT = 'T3DBI1-READ-24;T3DBI1;FACUL;BIN;LIT;SELAFIN'
DEFAUT = ' '
DEFAUT1 = ' '
RUBRIQUE = 'ENTREES-SORTIES, FICHIERS';'NOMS'
RUBRIQUE1 = 'INPUT-OUTPUT, FILES';'NAMES'
NIVEAU = 1
AIDE = 'Fichier de donnees code en binaire mis a la disposition
de l''utilisateur. Format Selafin, utilise en cas de suite 2D'
AIDE1 = 'Data file in binary mode, Selafin format, 
used in case of 2D continuation'

NOM = 'FICHIER DE DONNEES BINAIRE 2'
NOM1 = 'BINARY DATA FILE 2'
TYPE = CARACTERE
INDEX = 22
MNEMO = 'T3D_FILES(T3DBI2)%NAME'
TAILLE = 0
SUBMIT = 'T3DBI2-READ-25;T3DBI2;FACUL;BIN;LIT;SCAL'
DEFAUT = ' '
DEFAUT1 = ' '
RUBRIQUE = 'ENTREES-SORTIES, FICHIERS';'NOMS'
RUBRIQUE1 = 'INPUT-OUTPUT, FILES';'NAMES'
NIVEAU = 1
AIDE = 'Fichier de donnees code en binaire mis a la disposition
de l''utilisateur.'
AIDE1 = 'Binary data file'

NOM = 'FACTURATION'
NOM1 = 'PRIORITY'
TYPE = CARACTERE
INDEX = 23
MNEMO = ''
TAILLE = 0
DEFAUT = 'JOUR'
DEFAUT1 = 'JOUR'
CHOIX = 'JOUR';
        'NUIT';
        'WEEK-END'
CHOIX1 = 'JOUR';
         'NUIT';
         'WEEK-END'
RUBRIQUE = 'ENTREES-SORTIES, GENERALITES';'ENVIRONNEMENT'
RUBRIQUE1 = 'INPUT-OUTPUT, INFORMATION';'COMPUTATION ENVIRONMENT'
NIVEAU = 2
AIDE = 'Choix de l''instant de lancement.'
AIDE1 = ''

NOM = 'BINAIRE DU FICHIER DE GEOMETRIE'
NOM1 = 'GEOMETRY FILE BINARY'
TYPE = CARACTERE
INDEX = 24
MNEMO = 'BINGEO'
TAILLE = 0
DEFAUT = 'STD'
DEFAUT1 = 'STD'
CHOIX = 'STD';
        'IBM';
        'I3E'
CHOIX1 = 'STD';
         'IBM';
         'I3E'
RUBRIQUE = 'ENTREES-SORTIES, FICHIERS';'TYPE DU BINAIRE'
RUBRIQUE1 = 'INPUT-OUTPUT, FILES';'TYPE OF BINARY'
NIVEAU = 3
COMPORT = 
'Foreground ("ENTREES-SORTIES, FICHIERS*TYPE DU BINAIRE")
IS BRUT (red)'
[...]
- MED     : MED format based on HDF5
Only SERAFIND ensures a perfect restart'

NOM = 'VALEURS DES TRACEURS DANS LA PLUIE'
NOM1 = 'VALUES OF TRACERS IN THE RAIN'
TYPE = REEL
INDEX = 32
MNEMO = 'TRAIN'
TAILLE = 2
RUBRIQUE = 'PARAMETRES NUMERIQUES'
RUBRIQUE1 = 'NUMERICAL PARAMETERS'
NIVEAU = 1
AIDE = 'Fixe la valeur des traceurs dans la pluie.'
AIDE1 = 'Sets the value of the tracers in the rain.'

NOM = 'OPTION POUR LES CONDITIONS AUX LIMITES DE MAREE'
NOM1 = 'OPTION FOR TIDAL BOUNDARY CONDITIONS'
TYPE = INTEGER
INDEX = 111
MNEMO = 'TIDALTYPE'
TAILLE = 0
DEFAUT = 0
DEFAUT1= 0
CHOIX=
'0="Pas de maree"';
'1="Maree reelle (methodologie recommandee)"';
'2="Maree de vive-eau exceptionnelle (coef. presque 120)"';
'3="Maree de vive-eau moyenne (coef. presque 95)"';
'4="Maree moyenne (coef. presque 70)"';
'5="Maree de morte-eau moyenne (coef. presque 45)"';
'6="Maree de morte-eau exceptionnelle (coef. presque 20)"';
'7="Maree reelle (methodologie d avant 2010)"'
CHOIX1=
'0="No tide"';
'1="Real tide (recommended methodology)"';
'2="Astronomical tide"';
'3="Mean spring tide"';
'4="Mean tide"';
'5="Mean neap tide"';
'6="Astronomical neap tide"';
'7="Real tide (methodology before 2010)"'
RUBRIQUE = 'PARAMETRES NUMERIQUES';'GENERAL' 
RUBRIQUE1 = 'NUMERICAL PARAMETERS';'GENERAL' 
NIVEAU = 1
AIDE = 'Option pour les conditions aux limites de maree.
Pour des marees reelles, l option 1 est recommandee.
Calage possible par les mots-cles COEFFICIENT POUR CALAGE EN MARNAGE
et COEFFICIENT POUR CALAGE EN NIVEAU.'
AIDE1= 'Option for tidal boundary conditions.
For real tides, option 1 is recommended.
Possible calibration with the keywords COEFFICIENT TO CALIBRATE TIDAL RANGE, 
COEFFICENT TO CALIBRATE TIDAL VELOCITIES, 
and COEFFICIENT TO CALIBRATE SEA LEVEL.'

NOM = 'FICHIER DES CONSTANTES HARMONIQUES' 
NOM1 = 'HARMONIC CONSTANTS FILE' 
TYPE = CARACTERE 
INDEX = 86 
MNEMO = 'T3D_FILES(T3DHAR)' 
SUBMIT = 'NHAR-READWRITE-45;T3DHAR;FACUL;ASC;ECRLIT;PARAL' 
DEFAUT = ' ' 
DEFAUT1 = ' ' 
RUBRIQUE = 'ENTREES-SORTIES, FICHIERS';'NOMS' 
RUBRIQUE1 = 'INPUT-OUTPUT, FILES';'NAMES' 
NIVEAU = 1 
AIDE = 'Constantes harmoniques extraites du fichier du modele de maree' 
AIDE1 = 'Harmonic constants extracted from the tidalmodel file' 

NOM = 'FICHIER DU MODELE DE MAREE' 
NOM1 = 'TIDAL MODEL FILE' 
TYPE = CARACTERE 
INDEX = 87 
MNEMO = 'T3D_FILES(T3DTID)' 
SUBMIT = 'NTID-READ-46;T3DTID;FACUL;BIN;LIT;SCAL' 
DEFAUT = ' ' 
DEFAUT1 = ' ' 
RUBRIQUE = 'ENTREES-SORTIES, FICHIERS';'NOMS' 
RUBRIQUE1 = 'INPUT-OUTPUT, FILES';'NAMES' 
NIVEAU = 1 
AIDE = 'Fichier de geometrie du modele dont sont extraites 
les constantes harmoniques' 
AIDE1 = 'Geometry file of the model from which harmonic constituents 
are extracted' 

NOM = 'BASE ASCII DE DONNEES DE MAREE' 
NOM1 = 'ASCII DATABASE FOR TIDE' 
TYPE = CARACTERE 
INDEX = 88 
MNEMO = 'T3D_FILES(T3DBDD)' 
SUBMIT = 'NBDD-READ-47;T3DBDD;FACUL;ASC;LIT;PARAL' 
DEFAUT = ' ' 
DEFAUT1 = ' ' 
RUBRIQUE = 'ENTREES-SORTIES, FICHIERS';'NOMS' 
RUBRIQUE1 = 'INPUT-OUTPUT, FILES';'NAMES' 
NIVEAU = 1 
AIDE = 'Base de donnees de constantes harmoniques 
tirees du fichier du modele de maree. 
Ancien nom en version 6.1 pour Telemac-2D : BASE DE DONNEES DE MAREE' 
AIDE1 = 'Tide data base of harmonic constituents 
extracted from the TIDAL MODEL FILE.
Old name in 6.1 version for Telemac-2D: TIDE DATA BASE' 
/
NOM = 'BASE BINAIRE 1 DE DONNEES DE MAREE'
NOM1 = 'BINARY DATABASE 1 FOR TIDE'
TYPE = CARACTERE
INDEX = 89
MNEMO = 'T3D_FILES(T3DBB1)'
SUBMIT = 'NBB1-READ-48;T3DBB1;FACUL;BIN;LIT;PARAL'
DEFAUT = ' '
DEFAUT1 = ' '
RUBRIQUE = 'ENTREES-SORTIES, FICHIERS';'NOMS'
RUBRIQUE1 = 'INPUT-OUTPUT, FILES';'NAMES'
NIVEAU = 1
AIDE = 'Base de donnees binaire 1.
 Dans le cas des donnees satellitaires de l OSU (type TPXO), ce fichier correspond
 aux donnees de niveau d''eau, par exemple h_tpxo7.2'
AIDE1 = 'Binary database 1 extracted from the tidal model file.
 In the case of the OSU satellite altimetry model (TPXO type), this file should
 be for free surface level, for instance h_tpxo7.2'

NOM = 'BASE BINAIRE 2 DE DONNEES DE MAREE'
NOM1 = 'BINARY DATABASE 2 FOR TIDE'
TYPE = CARACTERE
INDEX = 90
MNEMO = 'T3D_FILES(T3DBB2)'
SUBMIT = 'NBB2-READ-49;T3DBB2;FACUL;BIN;LIT;PARAL'
DEFAUT = ' '
DEFAUT1 = ' '
RUBRIQUE = 'ENTREES-SORTIES, FICHIERS';'NOMS'
RUBRIQUE1 = 'INPUT-OUTPUT, FILES';'NAMES'
NIVEAU = 1
AIDE = 'Base de donnees binaire 2.
 Dans le cas des donnees satellitaires de l OSU (type TPXO), ce fichier correspond
 aux donnees de vitesse de marrees, par exemple u_tpxo7.2'
AIDE1 = 'Binary database 2 extracted from the tidal model file.
 In the case of the OSU satellite altimetry model (TPXO type), this file should
 be for tidal velocities, for instance u_tpxo7.2'

NOM = 'COEFFICIENT DE CALAGE DU MARNAGE'
NOM1 = 'COEFFICIENT TO CALIBRATE TIDAL RANGE'
TYPE = REEL
INDEX = 99
MNEMO = 'CTIDE'
TAILLE = 0
DEFAUT = 1. 
DEFAUT1 = 1. 
RUBRIQUE = 'PARAMETRES NUMERIQUES'
RUBRIQUE1 = 'NUMERICAL PARAMETERS'
NIVEAU = 1
AIDE = 'Coefficient pour ajuster le marnage de l''onde de maree 
aux frontieres maritimes'
AIDE1 = 'Coefficient to calibrate the tidal range of tidal wave 
at tidal open boundary conditions'

NOM = 'COEFFICIENT DE CALAGE DES VITESSES DE COURANT'
NOM1 = 'COEFFICIENT TO CALIBRATE TIDAL VELOCITIES'
TYPE = REEL
INDEX = 100
MNEMO = 'CTIDEV'
TAILLE = 0
DEFAUT = 999999. 
DEFAUT1 = 999999. 
RUBRIQUE = 'PARAMETRES NUMERIQUES'
RUBRIQUE1 = 'NUMERICAL PARAMETERS'
NIVEAU = 1
AIDE = 'Coefficient pour ajuster les composantes de vitesse 
de l''onde de maree aux frontieres maritimes.
La valeur par defaut 999999. signifie que c''est la racine carree 
du COEFFICIENT DE CALAGE DU MARNAGE qui est prise'
AIDE1 = 'Coefficient to calibrate the tidal velocities of tidal wave 
at tidal open boundary conditions.
Default value 999999. means that the square root of 
COEFFICIENT TO CALIBRATE TIDAL RANGE is taken'

NOM = 'COEFFICIENT DE CALAGE DU NIVEAU DE MER'
NOM1 = 'COEFFICIENT TO CALIBRATE SEA LEVEL'
TYPE = REEL
INDEX = 101
MNEMO = 'MSL'
TAILLE = 0
DEFAUT = 0. 
DEFAUT1 = 0. 
RUBRIQUE = 'PARAMETRES NUMERIQUES'
RUBRIQUE1 = 'NUMERICAL PARAMETERS'
NIVEAU = 1
AIDE = 'Coefficient pour ajuster le niveau de mer'
AIDE1 = 'Coefficient to calibrate the sea level'

NOM = 'BASE DE DONNEES DE MAREE'
NOM1 = 'TIDAL DATA BASE'
TYPE = ENTIER
INDEX = 112
MNEMO = 'TIDALDB'
TAILLE = 0
DEFAUT = -1 
DEFAUT1 = -1 
CHOIX=
'-1="PAS DE VALEUR PAR DEFAUT. CHOISIR LA BASE PARMI LES CHOIX POSSIBLES"';
'1="JMJ"';
'2="TPXO"';
'3="LEGOS-NEA"';
'4="FES2004"'
CHOIX1=
'-1="NO DEFAULT VALUE. CHOOSE THE BASE AMONG THE POSSIBLE CHOICES"';
'1="JMJ"';
'2="TPXO"';
'3="LEGOS-NEA"';
'4="FES2004"'
RUBRIQUE = 'PARAMETRES NUMERIQUES'
RUBRIQUE1 = 'NUMERICAL PARAMETERS'
NIVEAU = 1
AIDE = 'Pour JMJ, renseigner la localisation du fichier bdd_jmj et geofin
dans les mots-cles BASE DE DONNEES DE MAREE et FICHIER DU MODELE DE MAREE.
Pour TPXO et LEGOS-NEA, l''utilisateur doit telecharger
les fichiers de constantes harmoniques sur internet.
Pour FES2004 : pas encore disponible'
AIDE1 = 'For JMJ, indicate the location of the files bdd_jmj and geofin with keywords 
TIDE DATA BASE and TIDAL MODEL FILE.
For TPXO and LEGOS-NEA, the user have to download
files of harmonic constituents on the internet.
For FES2004: not yet available'

NOM = 'SYSTEME GEOGRAPHIQUE'
NOM1 = 'GEOGRAPHIC SYSTEM'
TYPE = ENTIER
INDEX = 113
MNEMO = 'GEOSYST'
TAILLE = 0
DEFAUT = -1 
DEFAUT1 = -1 
CHOIX=
'-1="PAS DE VALEUR PAR DEFAUT. CHOISIR LE SYSTEME PARMI LES CHOIX POSSIBLES"';
'0="DEFINI PAR L''UTILISATEUR"';
'1="WGS84 LONGITUDE/LATITUDE EN DEGRES REELS"';
'2="WGS84 NORD UTM"';
'3="WGS84 SUD UTM"';
'4="LAMBERT"';
'5="MERCATOR PROJECTION"'
CHOIX1=
'-1="NO DEFAULT VALUE. CHOOSE THE SYSTEM AMONG THE POSSIBLE CHOICES"';
'0="DEFINED BY USER"';
'1="WGS84 LONGITUDE/LATITUDE IN REAL DEGREES"';
'2="WGS84 NORTHERN UTM"';
'3="WGS84 SOUTHERN UTM"';
'4="LAMBERT"';
'5="MERCATOR PROJECTION"'
RUBRIQUE = 'PARAMETRES NUMERIQUES'
RUBRIQUE1 = 'NUMERICAL PARAMETERS'
NIVEAU = 1
AIDE = 'Systeme de coordonnees geographiques dans lequel est construit 
le modele numerique. 
Indiquer la zone correspondante avec le mot-cle '
AIDE1 = 'Geographic coordinates system in which the numerical model is built.
Indicate the corresponding zone with the keyword '

NOM = 'NUMERO DE FUSEAU OU PROJECTION DANS LE SYSTEME GEOGRAPHIQUE'
NOM1 = 'ZONE NUMBER IN GEOGRAPHIC SYSTEM'
TYPE = ENTIER
INDEX = 114
MNEMO = 'NUMZONE'
TAILLE = 0
DEFAUT = -1 
DEFAUT1 = -1 
CHOIX=
'-1="PAS DE VALEUR PAR DEFAUT. CHOISIR LE NUMERO PARMI LES CHOIX POSSIBLES"';
'1="LAMBERT 1 NORD"';
'2="LAMBERT 2 CENTRE"';
'3="LAMBERT 3 SUD"';
'4="LAMBERT 4 CORSE"';
'22="LAMBERT 2 ETENDU"';
'30="ZONE UTM, PAR EXEMPLE"'
CHOIX1=
'-1="NO DEFAULT VALUE. CHOOSE THE NUMBER AMONG THE POSSIBLE CHOICES"';
'1="LAMBERT 1 NORTH"';
'2="LAMBERT 2 CENTER"';
'3="LAMBERT 3 SOUTH"';
'4="LAMBERT 4 CORSICA"';
'22="LAMBERT 2 EXTENDED"';
'30="UTM ZONE, E.G."'
RUBRIQUE = 'PARAMETRES NUMERIQUES'
RUBRIQUE1 = 'NUMERICAL PARAMETERS'
NIVEAU = 1
AIDE = 'Numero de zone (fuseau ou type de projection) 
lors de l''utilisation d''une projection plane. 
Indiquer le systeme geographique dans lequel est construit le modele numerique 
avec le mot-cle SYSTEME GEOGRAPHIQUE'
AIDE1 = 'Number of zone when using a plane projection. 
Indicate the geographic system in which the numerical model is built 
with the keyword GEOGRAPHIC SYSTEM'

NOM = 'INTERPOLATION DE COMPOSANTES MINEURES'
NOM1 = 'MINOR CONSTITUENTS INFERENCE'
TYPE = LOGIQUE
INDEX = 86
MNEMO = 'INTMICON'
TAILLE = 0
DEFAUT = NON
DEFAUT1 = NO
RUBRIQUE = 'PARAMETRES NUMERIQUES'
RUBRIQUE1 = 'NUMERICAL PARAMETERS'
NIVEAU = 1
AIDE  = 'Pour la base de donnees TPXO uniquement. 
Interpolation de composantes harmoniques mineures 
a partir de celles lues dans les fichiers d''entree 
lies aux mots-cles BASE BINAIRE 1 DE DONNEES DE MAREE
et BASE BINAIRE 2 DE DONNEES DE MAREE'
AIDE1 = 'For TPXO tidal data base only. 
Inference of minor constituents from the ones read in input files 
linked to keywords BINARY DATABASE 1 FOR TIDE 
and BINARY DATABASE 2 FOR TIDE'
/
/ VERSION 6.2
/ 
NOM = 'FICHIER DES FLOTTEURS'
NOM1 = 'DROGUES FILE'
TYPE = CARACTERE 
INDEX = 91
MNEMO = 'T3D_FILES(T3DFLO)%NAME' 
SUBMIT = 'T3DFLO-WRITE-14;T3DFLO;FACUL;ASC;ECR;SCAL' 
DEFAUT = ' ' 
DEFAUT1 = ' ' 
RUBRIQUE = 'ENTREES-SORTIES, FICHIERS';'NOMS' 
RUBRIQUE1 = 'INPUT-OUTPUT, FILES';'NAMES' 
NIVEAU = 1 
AIDE = 'Fichier de resultat avec les positions des flotteurs' 
AIDE1 = 'Results file with positions of drogues' 

NOM = 'FICHIER POUR SUITE 2D'
NOM1 = 'FILE FOR 2D CONTINUATION'
TYPE = CARACTERE 
INDEX = 92
MNEMO = 'T3D_FILES(T3DS2D)%NAME' 
SUBMIT = 'T3DS2D-READ-15;T3DS2D;FACUL;BIN;LIT;SELAFIN' 
DEFAUT = ' ' 
DEFAUT1 = ' ' 
RUBRIQUE = 'ENTREES-SORTIES, FICHIERS';'NOMS' 
RUBRIQUE1 = 'INPUT-OUTPUT, FILES';'NAMES' 
NIVEAU = 1 
AIDE = 'Fichier utilise en cas de suite 2D' 
AIDE1 = 'File to be used in case of 2D continuation' 

NOM = 'FORMAT DU FICHIER POUR SUITE 2D'
NOM1 = 'FILE FOR 2D CONTINUATION FORMAT'
TYPE = CARACTERE
INDEX = 93
MNEMO = 'T3D_FILES(T3DS2D)%FMT'
DEFAUT = 'SERAFIN '
DEFAUT1 = 'SERAFIN '
CHOIX = 'SERAFIN ';'SERAFIND';'MED     '
NIVEAU = 2
RUBRIQUE = 'ENTREES-SORTIES, FICHIERS'
RUBRIQUE1 = 'INPUT-OUTPUT, FILES'
AIDE = 'Format du fichier pour suite 2D.
Les valeurs possibles sont :
- SERAFIN : format standard simple precision pour Telemac; 
- SERAFIND: format standard double precision pour Telemac;
- MED     : format MED base sur HDF5'
AIDE1 = 'File for 2D continuation format.
Possible values are:
- SERAFIN : classical single precision format in Telemac; 
- SERAFIND: classical double precision format in Telemac;
- MED     : MED format based on HDF5'
/
/ VERSION 6.2
/ 
NOM = 'MAXIMUM D''ITERATIONS POUR LES SCHEMAS DE CONVECTION' 
NOM1 = 'MAXIMUM NUMBER OF ITERATIONS FOR ADVECTION SCHEMES' 
TYPE = ENTIER
INDEX = 115
MNEMO = 'MAXADV'
TAILLE = 0
DEFAUT = 10
DEFAUT1 = 10
RUBRIQUE = 'PARAMETRES NUMERIQUES'
RUBRIQUE1 = 'NUMERICAL PARAMETERS'
NIVEAU = 2
AIDE = 'Seulement pour schemes 13 et 14'
AIDE1 = 'Only for schemes 13 and 14'

NOM = 'OPTION POUR LES CARACTERISTIQUES'
NOM1 = 'OPTION FOR CHARACTERISTICS'
TYPE = ENTIER
INDEX = 116
MNEMO = 'OPTCHA'
TAILLE = 0
DEFAUT = 1
DEFAUT1 = 1
CHOIX='1="fortes"';'2="faibles"'
CHOIX1='1="strong"';'2="weak"'
RUBRIQUE = 'PARAMETRES PHYSIQUES'
RUBRIQUE1 = 'PHYSICAL PARAMETERS' 
NIVEAU = 2
AIDE = '1: forme forte 2: forme faible'
AIDE1 = '1: strong form 2: weak form'

NOM = 'NOMBRE DE POINTS DE GAUSS POUR LES CARACTERISTIQUES FAIBLES' 
NOM1 = 'NUMBER OF GAUSS POINTS FOR WEAK CHARACTERISTICS' 
TYPE = ENTIER
INDEX = 117
MNEMO = 'NGAUSS'
TAILLE = 0
DEFAUT = 3
DEFAUT1 = 3
CHOIX='1="1 point"';'3="3 points"';'6="6 points"'
CHOIX1='1="1 point"';'3="3 points"';'6="6 points"'
RUBRIQUE = 'PARAMETRES NUMERIQUES'
RUBRIQUE1 = 'NUMERICAL PARAMETERS'
NIVEAU = 2
AIDE = 'Voir les release notes 6.3'
AIDE1 = 'See release notes 6.3'

NOM = 'MASS-LUMPING POUR LES CARACTERISTIQUES FAIBLES'
NOM1 = 'MASS-LUMPING FOR WEAK CHARACTERISTICS'
TYPE = REAL
INDEX = 102
MNEMO = 'AGGLOW'
TAILLE = 0
DEFAUT = 0.
DEFAUT1 = 0.
RUBRIQUE = 'PARAMETRES PHYSIQUES'
RUBRIQUE1 = 'PHYSICAL PARAMETERS'
NIVEAU = 2
AIDE = 'Applique a la matrice de masse'
AIDE1 = 'To be applied to the mass matrix'

/
/---------------------------------------------------------------------
/
NOM = 'DICTIONNAIRE'
NOM1 = 'DICTIONARY'
TYPE = CARACTERE
INDEX = 100
MNEMO = ''
SUBMIT = 'INUTILE;T3DDICO;OBLIG;ASC;LIT;DICO'
DEFAUT = 'telemac3d.dico'
DEFAUT1 = 'telemac3d.dico'
RUBRIQUE = 'ENTREES-SORTIES, GENERALITES';'ENVIRONNEMENT'
RUBRIQUE1 = 'INPUT-OUTPUT, INFORMATION';'COMPUTATION ENVIRONMENT'
NIVEAU = -3
AIDE ='Dictionnaire des mots cles.'
AIDE1 ='Key word dictionary.'
/
NOM = 'LISTE DES FICHIERS'
NOM1 = 'LIST OF FILES'
TYPE = CARACTERE
INDEX = 99
/
MNEMO = ''
TAILLE = 43
DEFAUT  = 'FICHIER DES PARAMETRES';
          'DICTIONNAIRE';
          'FICHIER FORTRAN';
          'FICHIER DE GEOMETRIE';
          'FICHIER DES CONDITIONS AUX LIMITES';
          'FICHIER DU CALCUL PRECEDENT';
          'FICHIER DES RESULTATS 3D';
          'FICHIER DES FONDS';
          'FICHIER POUR SCOPE';
          'FICHIER DES RESULTATS 2D';
          'FICHIER DE DONNEES FORMATE 1';
          'FICHIER DE DONNEES FORMATE 2';
          'FICHIER DE DONNEES BINAIRE 1';
          'FICHIER DE DONNEES BINAIRE 2';
          'FICHIER DES RESULTATS SEDIMENTOLOGIQUES';
          'FICHIER SEDIMENTOLOGIQUE DU CALCUL PRECEDENT';
          'FICHIER DE REFERENCE';
          'FICHIER DES RESULTATS POUR SUBIEF-3D';
          'FICHIER DES FRONTIERES LIQUIDES';
          'FICHIER DELWAQ DES VOLUMES';
          'FICHIER DELWAQ DES SURFACES DE FLUX';
          'FICHIER DELWAQ DES FLUX VERTICAUX';
          'FICHIER DELWAQ DE LA SALINITE';
          'FICHIER DELWAQ DES SURFACES DU FOND';
          'FICHIER DELWAQ DES ECHANGES ENTRE NOEUDS';
          'FICHIER DELWAQ DES DISTANCES ENTRE NOEUDS';
          'FICHIER DELWAQ DE LA TEMPERATURE';
          'FICHIER DELWAQ DE LA VITESSE';
          'FICHIER DELWAQ DE LA DIFFUSION';
          'FICHIER DE COMMANDE DELWAQ';
          'FICHIER DES COURBES DE TARAGE';
          'FICHIER DES SOURCES';
          'FICHIER DE RESULTATS BINAIRE';
          'FICHIER DE RESULTATS FORMATE';
          'FICHIER DE COMMANDES MIGRHYCAR';
          'FICHIER POUR SUITE';
          'FICHIER DES CONSTANTES HARMONIQUES';
          'FICHIER DU MODELE DE MAREE';
          'BASE ASCII DE DONNEES DE MAREE';
          'BASE BINAIRE 1 DE DONNEES DE MAREE';
          'BASE BINAIRE 2 DE DONNEES DE MAREE';
          'FICHIER DES FLOTTEURS';
          'FICHIER POUR SUITE 2D'
DEFAUT1 = 'STEERING FILE';
          'DICTIONARY';
          'FORTRAN FILE';
          'GEOMETRY FILE';
          'BOUNDARY CONDITIONS FILE';
          'PREVIOUS COMPUTATION FILE';
          '3D RESULT FILE';
          'BOTTOM TOPOGRAPHY FILE';
          'FILE FOR SCOPE';
          '2D RESULT FILE';
          'FORMATTED DATA FILE 1';
          'FORMATTED DATA FILE 2';
          'BINARY DATA FILE 1';
          'BINARY DATA FILE 2';
          'SEDIMENTOLOGICAL RESULT FILE';
          'PREVIOUS COMPUTATION SEDIMENTOLOGICAL FILE';
          'REFERENCE FILE';
          'RESULT FILE FOR SUBIEF-3D';
          'LIQUID BOUNDARIES FILE';
          'VOLUMES DELWAQ FILE';
          'EXCHANGE AREAS DELWAQ FILE';
          'VERTICAL FLUXES DELWAQ FILE';
          'SALINITY DELWAQ FILE';
          'BOTTOM SURFACES DELWAQ FILE';
          'EXCHANGES BETWEEN NODES DELWAQ FILE';
          'NODES DISTANCES DELWAQ FILE';
          'TEMPERATURE DELWAQ FILE';
          'VELOCITY DELWAQ FILE';
          'DIFFUSIVITY DELWAQ FILE';
          'DELWAQ STEERING FILE';
          'STAGE-DISCHARGE CURVES FILE';
          'SOURCES FILE';
          'BINARY RESULTS FILE';
          'FORMATTED RESULTS FILE';
          'RESTART FILE';
          'MIGRHYCAR STEERING FILE';
          'HARMONIC CONSTANTS FILE';
          'TIDAL MODEL FILE';
          'ASCII DATABASE FOR TIDE';
          'BINARY DATABASE 1 FOR TIDE';
          'BINARY DATABASE 2 FOR TIDE';
          'DROGUES FILE';
          'FILE FOR 2D CONTINUATION'
RUBRIQUE  = 'FICHIERS'
RUBRIQUE1 = 'FILES'
NIVEAU = 1
AIDE = 'Noms des fichiers exploites par le code'
AIDE1= 'File names of the used files'

//
//----Librairies du code-------------------------------------------
//
//Conventions de notation :
//   VVV = version
//   MMM = mode (debug ou non)
//   PPP = plateforme
//   LLL = extension d'une librairie ("a" ou "lib")
//    |  = seperateur dans un path (/ sous Unix, \ sous NT)
//
//    ex : "telemac2d|tel2d_VVV|PPP|telemac2dMMMVVV.LLL"
//----Librairies du code-------------------------------------------
//
//Conventions de notation :
//   VVV = version
//   MMM = mode (debug ou non)
//   PPP = plateforme
//   LLL = extension d'une librairie ("a" ou "lib")
//    |  = seperateur dans un path (/ sous Unix, \ sous NT)
//
//    ex : "telemac2d|tel2d_VVV|PPP|telemac2dMMMVVV.LLL"

NOM = 'DESCRIPTION DES LIBRAIRIES'
NOM1 = 'DESCRIPTION DES LIBRARIES'
TYPE = CARACTERE
INDEX = 80
MNEMO = 'LINKLIBS'
TAILLE = 8
DEFAUT = 'builds|PPP|lib|telemac3dMMMVVV.LLL'; 
'builds|PPP|lib|telemac2dMMMVVV.LLL'; 
'builds|PPP|lib|tomawacMMMVVV.LLL'; 
'builds|PPP|lib|sisypheMMMVVV.LLL'; 
'builds|PPP|lib|biefMMMVVV.LLL'; 
'builds|PPP|lib|damoMMMVVV.LLL'; 
'builds|PPP|lib|parallelMMMVVV.LLL'; 
'builds|PPP|lib|specialMMMVVV.LLL' 
DEFAUT1 = 'builds|PPP|lib|telemac3dMMMVVV.LLL'; 
'builds|PPP|lib|telemac2dMMMVVV.LLL'; 
'builds|PPP|lib|tomawacMMMVVV.LLL'; 
'builds|PPP|lib|sisypheMMMVVV.LLL'; 
'builds|PPP|lib|biefMMMVVV.LLL'; 
'builds|PPP|lib|damoMMMVVV.LLL'; 
'builds|PPP|lib|parallelMMMVVV.LLL'; 
'builds|PPP|lib|specialMMMVVV.LLL' 

RUBRIQUE = 'ENTREES-SORTIES, GENERALITES';'CALCUL'
RUBRIQUE1 = 'INPUT-OUTPUT, INFORMATION';'COMPUTATIONAL INFORMATION'
NIVEAU = 1
AIDE  = 'Description des librairies de T2D'
AIDE1 = 'LIBRARIES description'

//----Executable par defaut du code---------------------------------
//
//Conventions de notation :
//   VVV = version
//   MMM = mode (debug ou non)
//   PPP = plateforme
//    |  = separateur dans un path (/ sous Unix, \ sous NT)
//
//    ex : "telemac3d|tel3d_VVV|PPP|telemac3dMMMVVV.LLL"

NOM = 'EXECUTABLE PAR DEFAUT'
NOM1 = 'DEFAULT EXECUTABLE'
TYPE = CARACTERE
INDEX = 81
MNEMO = 'EXEDEF'
TAILLE = 1
DEFAUT  = 'builds|PPP|bin|telemac3dMMMVVV.exe'
DEFAUT1 = 'builds|PPP|bin|telemac3dMMMVVV.exe'
RUBRIQUE = 'ENTREES-SORTIES, GENERALITES';'CALCUL'
RUBRIQUE1 = 'INPUT-OUTPUT, INFORMATION';'COMPUTATIONAL INFORMATION'
NIVEAU = 1
AIDE  = 'Executable par defaut de T3D'
AIDE1 = 'Default executable for T3D'

NOM = 'EXECUTABLE PARALLELE PAR DEFAUT'
NOM1 = 'DEFAULT PARALLEL EXECUTABLE'
TYPE = CARACTERE
INDEX = 82
MNEMO = 'EXEDEFPARA'
TAILLE = 1
DEFAUT  = 'builds|PPP|bin|telemac3dMMMVVV.exe'
DEFAUT1 = 'builds|PPP|bin|telemac3dMMMVVV.exe'
RUBRIQUE = 'ENTREES-SORTIES, GENERALITES';'CALCUL'
RUBRIQUE1 = 'INPUT-OUTPUT, INFORMATION';'COMPUTATIONAL INFORMATION'
NIVEAU = 1
AIDE  = 'Executable parallele par defaut de T3D'
AIDE1 = 'Default parallel executable for T3D'

