/ 26/02/2010
/
/ CV: ICQ et ICR reprise des memes mots cles pour SISYPHE que pour TELEMAC3D
/ Seule la valeur par defaut de ICR est differente
/ SISYPHE : ICR=1: KSP=KSPRATIO *D50
/TEL3D      ICR=0: TAUP=TOB
/ ICR: CORRECTION FROTTEMENT DE PEAU
/ ICQ: FORMULE POUR LA CONCENTRATION DE REFERENCE
/la formule 3: utiliser seulement si frottement de Nikuradse (KFROT=5)
/
&DYN
/
/---SYSTEME-TELEMAC-V7P1------------------------------TELEMAC-3D-------------
/
/Signification des differents mode d'acquisition/restitution
/des fichiers vis a vis du parallelisme :
/
/  - "SCAL" :
/     Meme fichier pour tous les processeurs lu par tous.
/     Seule la version du maitre est consideree apres calcul.
/
/  - "SELAFIN" :
/     Le fichier est "decompose/regroupe en sous-domaines" avec les outils
/      "partel/gretel" (dans le mode par defaut "parallelisme automatique")
/     Chaque processeur dispose d'un fichier prive.
/  - "SELAFIN-GEOM" :
/     idem SELAFIN mais pour le fichier de geometrie ='FICHIER DE GEOMETRIE'
/      (usage par le regoupeur GRETEL en parallelisme)
/
/  - "PARAL" :
/     Le fichier est duplique avant calcul ("LIT") pour chaque processeur
/      (avec une extension numerique), sauf s'il pre-existe avec cette
/      extension numerique : il est alors utilise (copie).
/     En mode "non automatique" : les fichiers lus doivent pre-exister avec
/      leur extension numerique.
/     S'il s'agit d'un fichier resultat ("ECR"), le fichier est restitue
/      avec son extension numerique (fichier specifique a chaque processeur).
/
/  - "CONLIM" :
/     Cette valeur designe le fichier des "conditions aux limites"
/     (utilise par le decoupeur "partel").
/
/---SYSTEME-TELEMAC-V7P1------------------------DeltaCAD-/-Septembre-2003----
/
NOM = 'NOMBRE DE PAS DE TEMPS'
NOM1 = 'NUMBER OF TIME STEPS'
TYPE = ENTIER
INDEX = 1
MNEMO = 'NIT'
TAILLE = 0
DEFAUT = 1
DEFAUT1 = 1
RUBRIQUE = 'PARAMETRES NUMERIQUES';'DUREE DU CALCUL'
RUBRIQUE1 = 'NUMERICAL PARAMETERS';'DURATION'
NIVEAU = 1
COMPORT =
'Foreground ("PARAMETRES NUMERIQUES*DUREE DU CALCUL")
IS BRUT (blue)'
AIDE = 'Definit le nombre de pas de temps effectues lors de
l''execution du code.'
AIDE1 = 'Specifies the number of time steps performed when running
the code.'

NOM = 'NOMBRE DE PLANS HORIZONTAUX'
NOM1 = 'NUMBER OF HORIZONTAL LEVELS'
TYPE = ENTIER
INDEX = 2
MNEMO = 'NPLAN'
TAILLE = 0
DEFAUT = 2
DEFAUT1 = 2
RUBRIQUE = 'PARAMETRES NUMERIQUES';'GENERAL'
RUBRIQUE1 = 'NUMERICAL PARAMETERS';'GENERAL'
NIVEAU = 1
COMPORT=
'Foreground ("PARAMETRES NUMERIQUES*GENERAL")
IS BRUT (blue)'
AIDE = 'Definit le nombre de plans du maillage entre le fond et la
surface. Vaut au moins 2.'
AIDE1 = 'Gives the number of planes from bottom to free surface. Must
be at least 2.'

NOM = 'NOMBRE DE TRACEURS'
NOM1 = 'NUMBER OF TRACERS'
TYPE = ENTIER
INDEX = 3
MNEMO = 'NTRAC'
TAILLE = 0
DEFAUT = 0
DEFAUT1 = 0
RUBRIQUE = 'EQUATIONS, TRACEUR'
RUBRIQUE1 = 'EQUATIONS, TRACER'
NIVEAU = 1
COMPORT =
'Foreground ("EQUATIONS, TRACEUR")
IS BRUT (brown)'
AIDE = 'Definit le nombre de traceurs.'
AIDE1 = 'Defines the number of tracers.'

NOM = 'MODELE DE LONGUEUR DE MELANGE'
NOM1 = 'MIXING LENGTH MODEL'
TYPE = ENTIER
INDEX = 4
MNEMO = 'MIXING'
TAILLE = 0
DEFAUT = 1
DEFAUT1 = 1
RUBRIQUE = 'EQUATIONS';'MODELE DE TURBULENCE'
RUBRIQUE1 = 'EQUATIONS';'TURBULENCE MODEL'
NIVEAU = 1
AIDE = 'Permet de specifier le modele de longueur utilise pour la
turbulence verticale. Les choix possibles sont :
\begin{itemize}
\item 1: Prandtl ;
\item 3: Nezu et Nakawaga ;
\item 5: Quetin ;
\item 6: Tsanis.
\end{itemize}
4 (jet) a ete supprime.'
AIDE1 = 'Specifies the mixing length model used for vertical turbulence.
Possible choices are:
\begin{itemize}
\item 1: Prandtl,
\item 3: Nezu and Nakawaga,
\item 5: Quetin,
\item 6: TsaniS.
\end{itemize}
4 (jet) has been suppressed.'

NOM = 'NOMBRE DE FLOTTEURS'
NOM1 = 'NUMBER OF DROGUES'
TYPE = ENTIER
INDEX = 5
MNEMO = 'NFLOT'
TAILLE = 0
DEFAUT = 0
DEFAUT1 = 0
RUBRIQUE = 'ENTREES-SORTIES, GRAPHIQUES ET LISTING'
RUBRIQUE1 = 'INPUT-OUTPUT, GRAPHICS AND LISTING'
NIVEAU = 2
AIDE = 'Permet d''effectuer un suivi de flotteurs.
Fixe le nombre de flotteurs a traiter lors du calcul.
Il est alors necessaire de mettre a jour le sous-programme
\telfile{FLOT3D} afin de fournir les informations sur les
positions de largage et les temps de suivi des flotteurs.'
AIDE1 = 'Number of drogues in the computation.
The user must then fill the subroutine \telfile{FLOT3D}
specifying the coordinates of the starting points,
their departure and arrival times.
The trajectory of drogues is recorded in the
\telkey{DROGUES FILE} that must be given in the steering file.'

NOM = 'PERIODE POUR LES SORTIES DE FLOTTEURS'
NOM1 = 'PRINTOUT PERIOD FOR DROGUES'
TYPE = ENTIER
INDEX = 6
MNEMO = 'FLOPRD'
TAILLE = 0
DEFAUT = 1
DEFAUT1 = 1
RUBRIQUE = 'ENTREES-SORTIES, GRAPHIQUES ET LISTING'
RUBRIQUE1 = 'INPUT-OUTPUT, GRAPHICS AND LISTING'
NIVEAU = 2
AIDE = 'Nombre de pas de temps entre 2 sorties de positions de
flotteurs dans le fichier des resultats binaire supplementaire
N affecte pas la qualite du calcul de la trajectoire'
AIDE1 = 'Number of time steps between 2 outputs of drogues
positions in the binary file.
It does not disturb the quality of the computation of the trajectory.'

NOM = 'PERIODE POUR LES SORTIES GRAPHIQUES'
NOM1 = 'GRAPHIC PRINTOUT PERIOD'
TYPE = ENTIER
INDEX = 7
MNEMO = 'GRAPRD'
TAILLE = 0
DEFAUT = 1
DEFAUT1 = 1
RUBRIQUE = 'ENTREES-SORTIES, GRAPHIQUES ET LISTING'
RUBRIQUE1 = 'INPUT-OUTPUT, GRAPHICS AND LISTING'
NIVEAU = 1
COMPORT =
'Foreground ("ENTREES-SORTIES, GRAPHIQUES ET LISTING")
IS BRUT (red)'
AIDE = 'Determine la periode en nombre de pas de temps d''impression des
\telkey{VARIABLES POUR LES SORTIES GRAPHIQUES 2D ou 3D}
(voir ces mot-cles) dans le \telkey{FICHIER DES RESULTATS 2D ou 3D}.'
AIDE1 = 'Determines, in number of time steps, the printout period for
the \telkey{VARIABLES FOR 2D (or 3D) GRAPHIC PRINTOUTS}
in the \telkey{2D or 3D RESULT FILE}.'

NOM = 'PERIODE POUR LES SORTIES LISTING'
NOM1 = 'LISTING PRINTOUT PERIOD'
TYPE = ENTIER
INDEX = 8
MNEMO = 'LISPRD'
TAILLE = 0
DEFAUT = 1
DEFAUT1 = 1
RUBRIQUE = 'ENTREES-SORTIES, GRAPHIQUES ET LISTING'
RUBRIQUE1 = 'INPUT-OUTPUT, GRAPHICS AND LISTING'
NIVEAU = 1
AIDE = 'Determine la periode en nombre de pas de temps d''impression
des ''VARIABLES A IMPRIMER''. Pour la mise au point,
il faut savoir que la sortie des resultats est effectuee
systematiquement sur le listing.'
AIDE1 = 'Determines, in number of time steps, the printout period of
the VARIABLES TO BE PRINTED.
The results are systematically printed out on the listing file.'

NOM = 'NUMERO DU PREMIER PAS DE TEMPS POUR LES SORTIES GRAPHIQUES'
NOM1 = 'NUMBER OF FIRST TIME STEP FOR GRAPHIC PRINTOUTS'
TYPE = ENTIER
INDEX = 9
MNEMO = 'GRADEB'
TAILLE = 0
DEFAUT = 0
DEFAUT1 = 0
RUBRIQUE = 'ENTREES-SORTIES, GRAPHIQUES ET LISTING'
RUBRIQUE1 = 'INPUT-OUTPUT, GRAPHICS AND LISTING'
NIVEAU = 1
AIDE = 'Determine le numero de pas de temps a partir duquel debute
l''ecriture des resultats dans le \telkey{FICHIER DES RESULTATS 2D}
ou \telkey{3D}''.'
AIDE1 = 'Determines the number of time steps after which the results
are first written into the \telkey{2D} or \telkey{3D RESULT FILE}.'

NOM = 'NUMERO DU PREMIER PAS DE TEMPS POUR LES SORTIES LISTING'
NOM1 = 'NUMBER OF FIRST TIME STEP FOR LISTING PRINTOUTS'
TYPE = ENTIER
INDEX = 10
MNEMO = 'LISDEB'
TAILLE = 0
DEFAUT = 0
DEFAUT1 = 0
RUBRIQUE = 'ENTREES-SORTIES, GRAPHIQUES ET LISTING'
RUBRIQUE1 = 'INPUT-OUTPUT, GRAPHICS AND LISTING'
NIVEAU = 1
AIDE = 'Determine le numero de pas de temps a partir duquel debute
l''ecriture des resultats dans le listing.'
AIDE1 = 'Determines the number of time steps after which the results
are first written into the listing.'

NOM = 'NOMBRE DE LISSAGES DU FOND'
NOM1 = 'NUMBER OF BOTTOM SMOOTHINGS'
TYPE = ENTIER
INDEX = 11
MNEMO = 'LISFON'
TAILLE = 0
DEFAUT = 0
DEFAUT1 = 0
RUBRIQUE = 'EQUATIONS';'LISSAGE'
RUBRIQUE1 = 'EQUATIONS';'SMOOTHINGS'
NIVEAU = 1
COMPORT =
'Foreground ("EQUATIONS*LISSAGE")
IS BRUT (brown)'
AIDE = 'Nombre de lissages effectues sur la topographie.
Chaque lissage, effectue a l''aide d''une matrice de masse,
est conservatif.
Utilise lorsque les donnees de bathymetrie donnent des resultats
trop irreguliers apres interpolation.'
AIDE1 ='Number of smoothings on bottom topography.
Each smoothing is mass conservative.
To be used when interpolation of bathymetry on the mesh gives
very rough results.'

NOM = 'NOMBRE DE SOUS ITERATIONS POUR LES NON LINEARITES'
NOM1 = 'NUMBER OF SUB ITERATIONS FOR NON LINEARITIES'
TYPE = ENTIER
INDEX = 12
MNEMO = 'NSOUSI'
TAILLE = 0
DEFAUT = 1
DEFAUT1 = 1
RUBRIQUE = 'PARAMETRES NUMERIQUES';'GENERAL'
RUBRIQUE1 = 'NUMERICAL PARAMETERS';'GENERAL'
NIVEAU = 1
AIDE = 'Permet de reactualiser, pour un meme pas de temps, les champs
convecteur et propagateur au cours de plusieurs sous-iterations. A la
premiere sous-iteration, ces champs sont donnes par $C$ et le champ de
vitesses au pas de temps precedent. Aux iterations suivantes, ils sont
pris egaux au champ de vitesse obtenu a la fin de la sous-iteration
precedente. Cette technique permet d''ameliorer la prise en compte des
non linearites.'
AIDE1 = 'Used for updating, within one time step, the advection and
propagation fields.
Upon the first sub-iteration, these fields are given by
$C$ and the velocity field in the previous time step. At subsequent
iterations, the results of the previous sub-iteration is used to
update the advection and propagation field.
The non-linearities can be taken into account through this technique.'

NOM = 'MODELE DE TURBULENCE VERTICAL'
NOM1 = 'VERTICAL TURBULENCE MODEL'
TYPE = ENTIER
INDEX = 14
MNEMO = 'ITURBV'
TAILLE = 0
DEFAUT = 1
DEFAUT1 = 1
CHOIX = '1="VISCOSITE CONSTANTE"';
        '2="LONGUEUR DE MELANGE"';
        '3="MODELE K-EPSILON"';
        '4="SMAGORINSKI"';
        '5= ';
        '6= ';
        '7="MODELE K-OMEGA" '
CHOIX1 = '1="CONSTANT VISCOSITY"';
         '2="MIXING LENGTH"';
         '3="K-EPSILON MODEL"';
         '4="SMAGORINSKI"';
         '5= ';
         '6= ';
         '7="K-OMEGA MODEL" '
RUBRIQUE = 'EQUATIONS';'MODELE DE TURBULENCE'
RUBRIQUE1 = 'EQUATIONS';'TURBULENCE MODEL'
NIVEAU = 1
AIDE = 'Permet de specifier le modele de turbulence horizontal.
Les choix possibles sont :
\begin{itemize}
\item 1 : viscosite constante ;
\item 2 : longueur de melange ;
\item 3 : modele $k$-$\epsilon$ ;
\item 4 : Smagorinski ;
\item 7 : $k$-$\omega$ model.
\end{itemize}
Attention : si on choisit l''option 1, il ne faut pas oublier d''ajuster
la valeur du mot cle \telkey{COEFFICIENT DE DIFFUSION}\ldots
Si on choisit les autres options, ce meme parametre doit retrouver sa
vraie valeur physique car elle est utilisee comme telle dans le modele
de turbulence.
Si on choisit l''option 3 ou 7, ce meme parametre doit retrouver sa
vraie valeur physique, en general environ $10^{-6}$
car elle est utilisee comme telle dans le modele de turbulence.'
AIDE1 = 'Specifies the horizontal turbulence model.
The available choices are:
\begin{itemize}
\item 1: constant viscosity,
\item 2: mixing length,
\item 3: $k$-$\epsilon$ model,
\item 4: Smagorinski,
\item 7: $k$-$\omega$ model.
\end{itemize}
Caution: if option 1 is chosen, give the right
\telkey{COEFFICIENT FOR\ldots\ DIFFUSION OF VELOCITIES}\ldots\
If option 3 ou 7 is chosen, this parameter must get its real physical
value of molecular diffusivity, generally about $10^{-6}$
because it is used as well in the turbulence model.'

NOM = 'REGIME DE TURBULENCE POUR LE FOND'
NOM1 = 'TURBULENCE REGIME FOR THE BOTTOM'
TYPE = ENTIER
INDEX = 15
MNEMO = 'LISRUF'
TAILLE = 0
DEFAUT = 2
DEFAUT1 = 2
CHOIX = '1= lisse ';
        '2= rugueux';
        '3= rugueux compatible avec anciennes versions'
CHOIX1 = '1= smooth';
         '2= rough';
         '3= rough compatibility with old versions'
RUBRIQUE = 'EQUATIONS';'MODELE DE TURBULENCE';'MODELE K-EPSILON'
RUBRIQUE1 = 'EQUATIONS';'TURBULENCE MODEL';'K-EPSILON MODEL'
NIVEAU = 1
COMPORT =
'Foreground ("EQUATIONS*MODELE DE TURBULENCE*MODELE K-EPSILON")
IS BRUT (brown)'
AIDE = 'Permet de definir le regime de turbulence pour le fond dans le
cas du modele de longueur de melange ou du modele $k$-$\epsilon$ :
\begin{itemize}
\item 1 : lisse ;
\item 2 : rugueux ;
\item 3 : rugueux (compatibilite avec anciennes versions).
\end{itemize}'
AIDE1 = 'Defines the turbulence regime for the bottom in the case of a
$k$-$\epsilon$ or mixing-length model:
\begin{itemize}
\item 1: smooth,
\item 2: rough,
\item 3: rough also (for compatibility with old versions).
\end{itemize}'

NOM = 'REGIME DE TURBULENCE POUR LES PAROIS LATERALES'
NOM1 = 'TURBULENCE REGIME FOR LATERAL SOLID BOUNDARIES'
TYPE = ENTIER
INDEX = 16
MNEMO = 'LISRUL'
TAILLE = 0
DEFAUT = 2
DEFAUT1 = 2
CHOIX = '1="lisse"';
        '2="rugueux"'
CHOIX1= '1="smooth"';
        '2="rough"'
RUBRIQUE = 'EQUATIONS';'MODELE DE TURBULENCE';'MODELE K-EPSILON'
RUBRIQUE1 = 'EQUATIONS';'TURBULENCE MODEL';'K-EPSILON MODEL'
NIVEAU = 1
AIDE = 'Definit le regime de turbulence pour les parois laterales :
\begin{itemize}
\item 1 : lisse ;
\item 2 : rugueux.
\end{itemize}'
AIDE1 = 'Defines the turbulence regime for the lateral boundaries:
\begin{itemize}
\item 1: smooth,
\item 2: rough.
\end{itemize}'

NOM = 'ORDRE DU TIR INITIAL POUR LA HAUTEUR'
NOM1 = 'INITIAL GUESS FOR DEPTH'
TYPE = ENTIER
INDEX = 17
MNEMO = 'IORDRH'
TAILLE = 0
DEFAUT = 1
DEFAUT1 = 1
CHOIX = '0=zero';
        '1=precedent';
        '2=extrapolation'
CHOIX1 = '0=zero';
         '1=previous';
         '2=extrapolation'
RUBRIQUE = 'PARAMETRES NUMERIQUES';'VITESSE-CELERITE-HAUTEUR'
RUBRIQUE1 = 'NUMERICAL PARAMETERS';'VELOCITY-CELERITY-DEPTH'
NIVEAU = 1
COMPORT =
'Foreground ("PARAMETRES NUMERIQUES*VITESSE-CELERITE-HAUTEUR")
IS BRUT (blue)'
AIDE = 'Tir initial du solveur de l''etape de propagation.
Offre la possibilite de modifier la valeur initiale de $\delta h$,
accroissement de $h$, a chaque iteration,
dans l''etape de propagation en utilisant les valeurs
finales de cette variable aux pas de temps precedents. Ceci peut
permettre d''accelerer la vitesse de convergence lors de la resolution
du systeme. Trois possibilites sont offertes :
\begin{itemize}
\item 0 : $\delta h$ = 0,
\item 1 : $\delta h$ = $\delta h_n$ (valeur finale de $\delta h$
 au pas de temps precedent),
\item 2 : $\delta h$ = 2 $\delta h_n$ - $\delta h_{n-1}$
(extrapolation).
\end{itemize}'
AIDE1 = 'Initial guess for the solver in the propagation step.
Makes it possible to modify the initial value of $\delta h$, upon each
iteration in the propagation step, by using the ultimate values this
variable had in the earlier time steps. Thus, the convergence can be
speeded up when the system is being solved. 3 options are available:
\begin{itemize}
\item 0: $\delta h$ = 0,
\item 1: $\delta h$ = $\delta h_n$  (ultimate $\delta h$ value
in the next previous time step),
\item 2: $\delta h$ = 2 $\delta h_n$ - $\delta h_{n-1}$ (extrapolation).
\end{itemize}'

NOM = 'SCHEMA POUR LA CONVECTION DES VITESSES'
NOM1 = 'SCHEME FOR ADVECTION OF VELOCITIES'
TYPE = ENTIER
INDEX = 18
MNEMO = 'SCHCVI'
TAILLE = 0
CHOIX = '0="PAS DE CONVECTION"';
        '1="CARACTERISTIQUES"';
        '2="EXPLICITE + SUPG"';
        '3="EXPLICITE LEO POSTMA"';
        '4="EXPLICITE + MURD SCHEMA N"';
        '5="EXPLICITE + MURD SCHEMA PSI"';
        '13="LEO POSTMA POUR BANCS DECOUVRANTS"';
        '14="SCHEMA N POUR BANCS DECOUVRANTS"'
CHOIX1 = '0="NO ADVECTION"';
         '1="CHARACTERISTICS"';
         '2="EXPLICIT + SUPG"';
         '3="EXPLICIT LEO POSTMA"';
         '4="EXPLICIT + MURD SCHEME N"';
         '5="EXPLICIT + MURD SCHEME PSI"';
         '13="LEO POSTMA FOR TIDAL FLATS"';
         '14="N-SCHEME FOR TIDAL FLATS"'
DEFAUT = 1
DEFAUT1 = 1
RUBRIQUE = 'EQUATIONS, CONVECTION';'GENERAL'
RUBRIQUE1 = 'EQUATIONS, ADVECTION';'GENERAL'
COMPORT =
'Foreground ("EQUATIONS, CONVECTION*GENERAL")
IS BRUT (blue)'
NIVEAU = 1
AIDE = 'Fixe le schema utilise pour la convection des vitesses.
Les choix possibles sont :
\begin{itemize}
\item 0 : pas de convection ;
\item 1 : caracteristiques ;
\item 2 : explicite + SUPG ;
\item 3 : explicite Leo Postma ;
\item 4 : explicite + MURD schema N ;
\item 5 : explicite + MURD schema PSI ;
\item 13 : Leo Postma pour bancs decouvrants ;
\item 14 : schema N pour bancs decouvrants.
\end{itemize}'
AIDE1 = 'Sets the advection scheme for the velocities.
Possible choices are:
\begin{itemize}
\item 0: no convection,
\item 1: characteristics,
\item 2: explicit + SUPG,
\item 3: explicit Leo Postma,
\item 4: explicit + MURD scheme N,
\item 5: explicit + MURD scheme PSI,
\item 13: Leo Postma for tidal flats,
\item 14: N-scheme for tidal flats.
\end{itemize}'

NOM = 'SCHEMA POUR LA CONVECTION DES TRACEURS'
NOM1 = 'SCHEME FOR ADVECTION OF TRACERS'
TYPE = ENTIER
INDEX = 19
MNEMO = 'SCHCTA'
TAILLE = 2
CHOIX = '0="PAS DE CONVECTION"';
        '1="CARACTERISTIQUES"';
        '2="EXPLICITE + SUPG"';
        '3="EXPLICITE LEO POSTMA"';
        '4="EXPLICITE + MURD SCHEMA N"';
        '5="EXPLICITE + MURD SCHEMA PSI"';
        '13="LEO POSTMA POUR BANCS DECOUVRANTS"';
        '14="SCHEMA N POUR BANCS DECOUVRANTS"'
CHOIX1 = '0="NO ADVECTION"';
         '1="CHARACTERISTICS"';
         '2="EXPLICIT + SUPG"';
         '3="EXPLICIT LEO POSTMA"';
         '4="EXPLICIT + MURD SCHEME N"';
         '5="EXPLICIT + MURD SCHEME PSI"';
         '13="LEO POSTMA FOR TIDAL FLATS"';
         '14="N-SCHEME FOR TIDAL FLATS"'
/DEFAUT = 5
/DEFAUT1 = 5
RUBRIQUE = 'EQUATIONS, CONVECTION';'GENERAL'
RUBRIQUE1 = 'EQUATIONS, ADVECTION';'GENERAL'
COMPORT =
'Foreground ("EQUATIONS, CONVECTION*GENERAL")
IS BRUT (blue)'
NIVEAU = 1
AIDE = 'Fixe le schema utilise pour la convection des traceurs.
Les choix possibles sont :
\begin{itemize}
\item 0 : pas de convection ;
\item 1 : caracteristiques ;
\item 2 : explicite + SUPG ;
\item 3 : explicite Leo Postma ;
\item 4 : explicite + MURD schema N ;
\item 5 : explicite + MURD schema PSI ;
\item 13 : Leo Postma pour bancs decouvrants ;
\item 14 : schema N pour bancs decouvrants.
\end{itemize}'
AIDE1 = 'Sets the advection scheme for the tracers.
Possible choices are:
\begin{itemize}
\item 0: no convection,
\item 1: characteristics,
\item 2: explicit + SUPG,
\item 3: explicit Leo Postma,
\item 4: explicit + MURD scheme N,
\item 5: explicit + MURD scheme PSI,
\item 13: Leo Postma for tidal flats,
\item 14: N-scheme for tidal flats.
\end{itemize}'

NOM = 'FONCTION D''AMORTISSEMENT'
NOM1 = 'DAMPING FUNCTION'
TYPE = ENTIER
INDEX = 20
MNEMO = 'DAMPING'
TAILLE = 0
DEFAUT = 0
DEFAUT1 = 0
RUBRIQUE = ''
RUBRIQUE1 = ''
NIVEAU = 1
AIDE = 'Specifie le type de fonction d''amortissement utilise
(quand un modele de longueur de melange est utilise).
Les choix possibles sont :
\begin{itemize}
\item 0: rien ;
\item 1: fait par l''utilisateur ;
\item 2: Viollet ;
\item 3: Munk et Anderson.
\end{itemize}'
AIDE1 = 'Specifies the type of damping function used (when using mixing
length turbulence model). The possible choices are:
\begin{itemize}
\item 0: nothing,
\item 1: user programmed,
\item 2: Viollet,
\item 3: Munk and Anderson.
\end{itemize}'

NOM = 'SCHEMA POUR LA CONVECTION DU K-EPSILON'
NOM1 = 'SCHEME FOR ADVECTION OF K-EPSILON'
TYPE = ENTIER
INDEX = 21
MNEMO = 'SCHCKE'
TAILLE = 0
CHOIX = '0="PAS DE CONVECTION"';
        '1="CARACTERISTIQUES"';
        '2="EXPLICITE + SUPG"';
        '3="EXPLICITE LEO POSTMA"';
        '4="EXPLICITE + MURD SCHEMA N"';
        '5="EXPLICITE + MURD SCHEMA PSI"';
        '13="LEO POSTMA POUR BANCS DECOUVRANTS"';
        '14="SCHEMA N POUR BANCS DECOUVRANTS"'
CHOIX1 = '0="NO ADVECTION"';
         '1="CHARACTERISTICS"';
         '2="EXPLICIT + SUPG"';
         '3="EXPLICIT LEO POSTMA"';
         '4="EXPLICIT + MURD SCHEME N"';
         '5="EXPLICIT + MURD SCHEME PSI"';
         '13="LEO POSTMA FOR TIDAL FLATS"';
         '14="N-SCHEME FOR TIDAL FLATS"'
DEFAUT = 1
DEFAUT1 = 1
RUBRIQUE = 'EQUATIONS, CONVECTION';'GENERAL'
RUBRIQUE1 = 'EQUATIONS, ADVECTION';'GENERAL'
COMPORT =
'Foreground ("EQUATIONS, CONVECTION*GENERAL")
IS BRUT (blue)'
NIVEAU = 1
AIDE = 'Fixe le schema utilise pour la convection du modele
$k$-$\epsilon$. Les choix possibles sont :
\begin{itemize}
\item 0 : pas de convection ;
\item 1 : caracteristiques ;
\item 2 : explicite + SUPG ;
\item 3 : explicite Leo Postma ;
\item 4 : explicite + MURD schema N ;
\item 5 : explicite + MURD schema PSI ;
\item 13 : Leo Postma pour bancs decouvrants ;
\item 14 : schema N pour bancs decouvrants.
\end{itemize}'
AIDE1 = 'Sets the advection scheme for the $k$-$\epsilon$ model.
Possible choices are:
\begin{itemize}
\item 0: no convection,
\item 1: characteristics,
\item 2: explicit + SUPG,
\item 3: explicit Leo Postma,
\item 4: explicit + MURD scheme N,
\item 5: explicit + MURD scheme PSI,
\item 13: Leo Postma for tidal flats,
\item 14: N-scheme for tidal flats.
\end{itemize}'

NOM = 'SCHEMA POUR LA CONVECTION DE LA HAUTEUR'
NOM1 = 'SCHEME FOR ADVECTION OF DEPTH'
TYPE = ENTIER
INDEX = 22
MNEMO = 'SCHCH'
TAILLE = 0
CHOIX = '5="CONSERVATIF"'
CHOIX1 = '5="CONSERVATIVE"'
DEFAUT = 5
DEFAUT1 = 5
RUBRIQUE = 'EQUATIONS, CONVECTION';'GENERAL'
RUBRIQUE1 = 'EQUATIONS, ADVECTION';'GENERAL'
COMPORT =
'Foreground ("EQUATIONS, CONVECTION*GENERAL")
IS BRUT (blue)'
NIVEAU = 1
AIDE = 'Le schema conservatif (5) est desormais impose.'
AIDE1 = 'The conservative scheme (5) is now mandatory.'

NOM = 'SCHEMA POUR LA DIFFUSION DES VITESSES'
NOM1 = 'SCHEME FOR DIFFUSION OF VELOCITIES'
TYPE = ENTIER
INDEX = 23
MNEMO = 'SCHDVI'
TAILLE = 0
CHOIX = '0="PAS DE DIFFUSION"';
        '1="IMPLICITE"'
CHOIX1 = '0="NO DIFFUSION"';
         '1="IMPLICIT"'
DEFAUT = 1
DEFAUT1 = 1
RUBRIQUE = 'EQUATIONS, DIFFUSION';'GENERAL'
RUBRIQUE1 = 'EQUATIONS, DIFFUSION';'GENERAL'
COMPORT =
'Foreground ("EQUATIONS, DIFFUSION*GENERAL")
IS BRUT (blue)'
NIVEAU = 1
AIDE = 'Permet de specifier si l''on utilise ou non la diffusion
des vitesses horizontales $U$ et $V$.
Les choix possibles sont :
\begin{itemize}
\item 0 : pas de diffusion,
\item 1 : implicite.
\end{itemize}'
AIDE1 = 'Monitors the choice of the diffusion scheme
for velocities.
Possible choices are:
\begin{itemize}
\item 0: no diffusion,
\item 1: implicit.
\end{itemize}'

NOM = 'SCHEMA POUR LA DIFFUSION DES TRACEURS'
NOM1 = 'SCHEME FOR DIFFUSION OF TRACERS'
TYPE = ENTIER
INDEX = 24
MNEMO = 'SCHDTA'
TAILLE = 1
CHOIX = '0="PAS DE DIFFUSION"';
        '1="IMPLICITE"';
        '2 ="VERTICAL DIFFUSION ONLY"'
CHOIX1 = '0="NO DIFFUSION"';
         '1="IMPLICIT"';
         '2 ="VERTICAL DIFFUSION ONLY"'
DEFAUT = 1
DEFAUT1 = 1
RUBRIQUE = 'EQUATIONS, DIFFUSION';'GENERAL'
RUBRIQUE1 = 'EQUATIONS, DIFFUSION';'GENERAL'
COMPORT =
'Foreground ("EQUATIONS, DIFFUSION*GENERAL")
IS BRUT (blue)'
NIVEAU = 1
AIDE = 'Permet de specifier si l''on utilise ou non la diffusion
des traceurs
Les choix possibles sont :
\begin{itemize}
\item 0 : pas de diffusion,
\item 1 : implicite;
\item 2 : diffusion verticale seulement.
\end{itemize}'
AIDE1 = 'Monitors the choice of the diffusion scheme
for tracers.
Possible choices are:
\begin{itemize}
\item 0: no diffusion,
\item 1: implicit,
\item 2: vertical diffusion only.
\end{itemize}'

NOM = 'LOI DE FROTTEMENT SUR LES PAROIS LATERALES'
NOM1 = 'LAW OF FRICTION ON LATERAL BOUNDARIES'
TYPE = ENTIER
INDEX = 25
MNEMO = 'KFROTL'
TAILLE = 0
DEFAUT = 0
DEFAUT1 = 0
CHOIX = '0="PAS DE FROTTEMENT"';
'1="COEFFICIENT PRIS DANS LE FICHIER DES CONDITIONS AUX LIMITES"';
'2="IDEM"';
'3="IDEM"';
'4="IDEM"';
'5="NIKURADSE"'
CHOIX1 = '0="NO FRICTION"';
'1="COEFFICIENT TAKEN IN BOUNDARY CONDITIONS FILE"';
'2="IDEM"';
'3="IDEM"';
'4="IDEM"';
'5="NIKURADSE"'
RUBRIQUE = 'EQUATIONS';'FROTTEMENT'
RUBRIQUE1 = 'EQUATIONS';'FRICTION'
NIVEAU = 1
AIDE = 'Selectionne le type de formulation utilisee pour le calcul
du frottement sur les parois laterales.
Les lois possibles sont les suivantes (cf. Note de principe) :
\begin{itemize}
\item 0 : pas de frottement, ou \telfile{AUBOR} donne par le
\telkey{FICHIER DES CONDITIONS AUX LIMITES} ;
\item 5 : formule de Nikuradse.
\end{itemize}'
AIDE1 = 'Selects the type of formulation used for the friction on
lateral boundaries. The possible laws are as follows (refer to the
Principle note):
\begin{itemize}
\item 0: no friction, or \telfile{AUBOR} given by the
\telkey{BOUNDARY CONDITION FILE},
\item 5: Nikuradse''s formula.
\end{itemize}'

NOM = 'SCHEMA POUR LA DIFFUSION DU K-EPSILON'
NOM1 = 'SCHEME FOR DIFFUSION OF K-EPSILON'
TYPE = ENTIER
INDEX = 26
MNEMO = 'SCHDKE'
TAILLE = 0
CHOIX = '0="PAS DE DIFFUSION"';
        '1="IMPLICITE"'
CHOIX1 = '0="NO DIFFUSION"';
         '1="IMPLICIT"'
DEFAUT = 1
DEFAUT1 = 1
RUBRIQUE = 'EQUATIONS, DIFFUSION';'GENERAL'
RUBRIQUE1 = 'EQUATIONS, DIFFUSION';'GENERAL'
COMPORT =
'Foreground ("EQUATIONS, DIFFUSION*GENERAL")
IS BRUT (blue)'
NIVEAU = 1
AIDE = 'Permet de specifier si l''on utilise ou non la diffusion
de $k$ et $\epsilon$.
Les choix possibles sont :
\begin{itemize}
\item 0 : pas de diffusion,
\item 1 : implicite.
\end{itemize}'
AIDE1 = 'Monitors the choice of the diffusion scheme
for $k$ and $\epsilon$.
Possible choices are:
\begin{itemize}
\item 0: no diffusion,
\item 1: implicit.
\end{itemize}'

NOM = 'PRECONDITIONNEMENT POUR LA DIFFUSION DES VITESSES'
NOM1 = 'PRECONDITIONING FOR DIFFUSION OF VELOCITIES'
TYPE = ENTIER
INDEX = 27
MNEMO = 'SLVDVI\%PRECON'
TAILLE = 0
DEFAUT = 2
DEFAUT1 = 2
CHOIX = '0="AUCUN"';
        '2="DIAGONAL"';
        '3="DIAGONAL CONDENSEE"';
        '5="DIAGONAL A VALEURS ABSOLUES"';
        '7="CROUT"';
        '11="GAUSS-SEIDEL EBE"';
        '13="MATRICE DEFINIE PAR L UTILISATEUR"';
        '14="DIAGONAL ET CROUT"';
        '17="SOLVEUR DIRECT SUR LA VERTICALE"';
        '21="DIAGONAL CONDENSE ET CROUT"';
        '34="DIAGONAL ET SOLVEUR DIRECT SUR LA VERTICALE"'
CHOIX1 = '0="no preconditioning"';
         '2="diagonal"';
         '3="diagonal condensed"';
         '5="diagonal with absolute values"';
         '7="Crout"';
         '11="Gauss-Seidel EBE"';
         '13="Matrix defined by the user"';
         '14="diagonal and Crout"';
         '17="direct solver on the vertical"';
         '21="diagonal condensed and Crout"';
         '34="diagonal and direct solver on the vertical"'
RUBRIQUE = 'EQUATIONS, DIFFUSION';'GENERAL'
RUBRIQUE1 = 'EQUATIONS, DIFFUSION';'GENERAL'
NIVEAU = 1
COMPORT =
'Foreground ("EQUATIONS, DIFFUSION*GENERAL")
IS BRUT (brown)'
AIDE = 'Permet de preconditionner le systeme relatif
a la diffusion des vitesses. Les choix possibles sont :
\begin{itemize}
\item 0 : aucun ;
\item 2 : diagonal ;
\item 3 : diagonal avec matrice condensee ;
\item 5 : diagonal avec valeurs absolues ;
\item 7 : Crout ;
\item 11 : Gauss-Seidel EBE ;
\item 13 : matrice fournie par l’utilisateur ;
\item 14 : diagonal et Crout ;
\item 17 : solveur direct sur la verticale ;
\item 21 : diagonal condensee et Crout ;
\item 34 : diagonal et solveur direct sur la verticale.
\end{itemize}'
AIDE1 = 'Choice of preconditioning for the diffusion of
velocities. Possible choices are:
\begin{itemize}
\item 0: no preconditioning,
\item 2: diagonal,
\item 3: diagonal with the condensed matrix,
\item 5: diagonal with absolute values,
\item 7: Crout,
\item 11: Gauss-Seidel EBE,
\item 13: matrix defined by the user,
\item 14: diagonal and Crout,
\item 17: direct solver on the vertical,
\item 21: diagonal condensed and Crout,
\item 34: diagonal and direct solver on the vertical.
\end{itemize}'

NOM = 'PRECONDITIONNEMENT POUR LA DIFFUSION DES TRACEURS'
NOM1 = 'PRECONDITIONING FOR DIFFUSION OF TRACERS'
TYPE = ENTIER
INDEX = 28
MNEMO = 'SLVDTA(ITRAC)\%PRECON'
TAILLE = 2
CHOIX = '0="AUCUN"';
        '2="DIAGONAL"';
        '3="DIAGONAL CONDENSEE"';
        '5="DIAGONAL A VALEURS ABSOLUES"';
        '7="CROUT"';
        '11="GAUSS-SEIDEL EBE"';
        '13="MATRICE DEFINIE PAR L UTILISATEUR"';
        '14="DIAGONAL ET CROUT"';
        '17="SOLVEUR DIRECT SUR LA VERTICALE"';
        '21="DIAGONAL CONDENSE ET CROUT"';
        '34="DIAGONAL ET SOLVEUR DIRECT SUR LA VERTICALE"'
CHOIX1 = '0="no preconditioning"';
         '2="diagonal"';
         '3="diagonal condensed"';
         '5="diagonal with absolute values"';
         '7="Crout"';
         '11="Gauss-Seidel EBE"';
         '13="Matrix defined by the user"';
         '14="diagonal and Crout"';
         '17="direct solver on the vertical"';
         '21="diagonal condensed and Crout"';
         '34="diagonal and direct solver on the vertical"'
RUBRIQUE = 'EQUATIONS, DIFFUSION';'GENERAL'
RUBRIQUE1 = 'EQUATIONS, DIFFUSION';'GENERAL'
NIVEAU = 1
COMPORT =
'Foreground ("EQUATIONS, DIFFUSION*GENERAL")
IS BRUT (brown)'
AIDE = 'Permet de preconditionner le systeme relatif
a la diffusion des traceurs. Les choix possibles sont :
\begin{itemize}
\item 0 : aucun ;
\item 2 : diagonal ;
\item 3 : diagonal avec matrice condensee ;
\item 5 : diagonal avec valeurs absolues ;
\item 7 : Crout ;
\item 11 : Gauss-Seidel EBE ;
\item 13 : matrice fournie par l’utilisateur ;
\item 14 : diagonal et Crout ;
\item 17 : solveur direct sur la verticale ;
\item 21 : diagonal condensee et Crout ;
\item 34 : diagonal et solveur direct sur la verticale.
\end{itemize}'
AIDE1 = 'Choice of preconditioning for the diffusion of tracers.
Possible choices are:
\begin{itemize}
\item 0: no preconditioning,
\item 2: diagonal,
\item 3: diagonal with the condensed matrix,
\item 5: diagonal with absolute values,
\item 7: Crout,
\item 11: Gauss-Seidel EBE,
\item 13: matrix defined by the user,
\item 14: diagonal and Crout,
\item 17: direct solver on the vertical,
\item 21: diagonal condensed and Crout,
\item 34: diagonal and direct solver on the vertical.
\end{itemize}'

NOM = 'MAXIMUM D''ITERATIONS POUR LA DIFFUSION DU SEDIMENT'
NOM1 = 'MAXIMUM NUMBER OF ITERATIONS FOR DIFFUSION OF SEDIMENT'
TYPE = ENTIER
INDEX = 29
MNEMO = 'SLVDSE\%NITMAX'
TAILLE = 0
DEFAUT = 60
DEFAUT1 = 60
RUBRIQUE = 'EQUATIONS, DIFFUSION';'TRACEUR'
RUBRIQUE1 = 'EQUATIONS, DIFFUSION';'TRACER'
NIVEAU = 1
COMPORT =
'Foreground ("EQUATIONS, DIFFUSION*TRACEUR")
IS BRUT (brown)'
AIDE = 'Limite le nombre d''iterations du solveur a chaque pas
de temps pour le calcul de la diffusion du sediment.'
AIDE1 = 'Limits the number of solver iterations for the diffusion of
sediment.'

NOM = 'PRECONDITIONNEMENT POUR LA DIFFUSION DU K-EPSILON'
NOM1 = 'PRECONDITIONING FOR DIFFUSION OF K-EPSILON'
TYPE = ENTIER
INDEX = 30
MNEMO = 'SLVDKE\%PRECON'
TAILLE = 0
DEFAUT = 2
DEFAUT1 = 2
CHOIX = '0="AUCUN"';
        '2="DIAGONAL"';
        '3="DIAGONAL CONDENSEE"';
        '5="DIAGONAL A VALEURS ABSOLUES"';
        '7="CROUT"';
        '11="GAUSS-SEIDEL EBE"';
        '13="MATRICE DEFINIE PAR L UTILISATEUR"';
        '14="DIAGONAL ET CROUT"';
        '17="SOLVEUR DIRECT SUR LA VERTICALE"';
        '21="DIAGONAL CONDENSE ET CROUT"';
        '34="DIAGONAL ET SOLVEUR DIRECT SUR LA VERTICALE"'
CHOIX1 = '0="no preconditioning"';
         '2="diagonal"';
         '3="diagonal condensed"';
         '5="diagonal with absolute values"';
         '7="Crout"';
         '11="Gauss-Seidel EBE"';
         '13="Matrix defined by the user"';
         '14="diagonal and Crout"';
         '17="direct solver on the vertical"';
         '21="diagonal condensed and Crout"';
         '34="diagonal and direct solver on the vertical"'
RUBRIQUE = 'EQUATIONS, DIFFUSION';'GENERAL'
RUBRIQUE1 = 'EQUATIONS, DIFFUSION';'GENERAL'
NIVEAU = 1
COMPORT =
'Foreground ("EQUATIONS, DIFFUSION*GENERAL")
IS BRUT (brown)'
AIDE = 'Permet de preconditionner le systeme relatif
a la diffusion du modele $k$-$\epsilon$. Les choix possibles sont :
\begin{itemize}
\item 0 : aucun ;
\item 2 : diagonal ;
\item 3 : diagonal avec matrice condensee ;
\item 5 : diagonal avec valeurs absolues ;
\item 7 : Crout ;
\item 11 : Gauss-Seidel EBE ;
\item 13 : matrice fournie par l’utilisateur ;
\item 14 : diagonal et Crout ;
\item 17 : solveur direct sur la verticale ;
\item 21 : diagonal condensee et Crout ;
\item 34 : diagonal et solveur direct sur la verticale.
\end{itemize}'
AIDE1 = 'Choice of preconditioning for the diffusion of
the $k$-$\epsilon$ model. Possible choices are:
\begin{itemize}
\item 0: no preconditioning,
\item 2: diagonal,
\item 3: diagonal with the condensed matrix,
\item 5: diagonal with absolute values,
\item 7: Crout,
\item 11: Gauss-Seidel EBE,
\item 13: matrix defined by the user,
\item 14: diagonal and Crout,
\item 17: direct solver on the vertical,
\item 21: diagonal condensed and Crout,
\item 34: diagonal and direct solver on the vertical.
\end{itemize}'

NOM = 'PRECONDITIONNEMENT POUR LA PROPAGATION'
NOM1 = 'PRECONDITIONING FOR PROPAGATION'
TYPE = ENTIER
INDEX = 31
MNEMO = 'SLVPRO\%PRECON'
TAILLE = 0
DEFAUT = 2
DEFAUT1 = 2
CHOIX = '0="AUCUN"';
        '2="DIAGONAL"';
        '3="DIAGONAL CONDENSEE"';
        '5="DIAGONAL A VALEURS ABSOLUES"';
        '7="CROUT"';
        '11="GAUSS-SEIDEL EBE"';
        '13="MATRICE DEFINIE PAR L UTILISATEUR"';
        '14="DIAGONAL ET CROUT"';
        '17="SOLVEUR DIRECT SUR LA VERTICALE"';
        '21="DIAGONAL CONDENSE ET CROUT"';
        '34="DIAGONAL ET SOLVEUR DIRECT SUR LA VERTICALE"'
CHOIX1 = '0="no preconditioning"';
         '2="diagonal"';
         '3="diagonal condensed"';
         '5="diagonal with absolute values"';
         '7="Crout"';
         '11="Gauss-Seidel EBE"';
         '13="Matrix defined by the user"';
         '14="diagonal and Crout"';
         '17="direct solver on the vertical"';
         '21="diagonal condensed and Crout"';
         '34="diagonal and direct solver on the vertical"'
RUBRIQUE = 'EQUATIONS';'PROPAGATION'
RUBRIQUE1 = 'EQUATIONS';'PROPAGATION'
NIVEAU = 1
AIDE = 'Permet de preconditionner le systeme de l''etape de propagation
afin d''accelerer la convergence lors de sa resolution. Les choix possibles sont :
\begin{itemize}
\item 0 : aucun ;
\item 2 : diagonal ;
\item 3 : diagonal avec matrice condensee ;
\item 5 : diagonal avec valeurs absolues ;
\item 7 : Crout ;
\item 11 : Gauss-Seidel EBE ;
\item 13 : matrice fournie par l’utilisateur ;
\item 14 : diagonal et Crout ;
\item 17 : solveur direct sur la verticale ;
\item 21 : diagonal condensee et Crout ;
\item 34 : diagonal et solveur direct sur la verticale.
\end{itemize}
Certains preconditionnements sont cumulables
(les diagonaux 2 ou 3 avec les autres).
Pour cette raison on ne retient que les nombres premiers pour
designer les preconditionnements. Si l''on souhaite en cumuler
plusieurs on formera le produit des options correspondantes.'
AIDE1 = 'Choice of the preconditioning in the propagation step linear
system that the convergence is speeded up when it is being solved.
Possible choices are:
\begin{itemize}
\item 0: no preconditioning,
\item 2: diagonal,
\item 3: diagonal with the condensed matrix,
\item 5: diagonal with absolute values,
\item 7: Crout,
\item 11: Gauss-Seidel EBE,
\item 13: matrix defined by the user,
\item 14: diagonal and Crout,
\item 17: direct solver on the vertical,
\item 21: diagonal condensed and Crout,
\item 34: diagonal and direct solver on the vertical.
\end{itemize}
Some operations (either 2 or 3 diagonal preconditioning) can be
performed concurrently with the others.
Only prime numbers are therefore kept to denote the preconditioning
operations. When several of them are to be performed concurrently,
the product of relevant options shall be done.'

NOM = 'PRECONDITIONNEMENT POUR LA VITESSE VERTICALE'
NOM1 = 'PRECONDITIONING FOR VERTICAL VELOCITY'
TYPE = ENTIER
INDEX = 32
MNEMO = 'SLVW\%PRECON'
TAILLE = 0
DEFAUT = 2
DEFAUT1 = 2
CHOIX = '0="AUCUN"';
        '2="DIAGONAL"';
        '3="DIAGONAL CONDENSEE"';
        '5="DIAGONAL A VALEURS ABSOLUES"';
        '7="CROUT"';
        '11="GAUSS-SEIDEL EBE"';
        '13="MATRICE DEFINIE PAR L UTILISATEUR"';
        '14="DIAGONAL ET CROUT"';
        '17="SOLVEUR DIRECT SUR LA VERTICALE"';
        '21="DIAGONAL CONDENSE ET CROUT"';
        '34="DIAGONAL ET SOLVEUR DIRECT SUR LA VERTICALE"'
CHOIX1 = '0="no preconditioning"';
         '2="diagonal"';
         '3="diagonal condensed"';
         '5="diagonal with absolute values"';
         '7="Crout"';
         '11="Gauss-Seidel EBE"';
         '13="Matrix defined by the user"';
         '14="diagonal and Crout"';
         '17="direct solver on the vertical"';
         '21="diagonal condensed and Crout"';
         '34="diagonal and direct solver on the vertical"'
RUBRIQUE = 'EQUATIONS';'GENERAL'
RUBRIQUE1 = 'EQUATIONS';'GENERAL'
NIVEAU = 1
AIDE = 'Permet de preconditionner le systeme relatif
au calcul de la vitesse verticale. Les choix possibles sont :
\begin{itemize}
\item 0 : aucun ;
\item 2 : diagonal ;
\item 3 : diagonal avec matrice condensee ;
\item 5 : diagonal avec valeurs absolues ;
\item 7 : Crout ;
\item 11 : Gauss-Seidel EBE ;
\item 13 : matrice fournie par l’utilisateur ;
\item 14 : diagonal et Crout ;
\item 17 : solveur direct sur la verticale ;
\item 21 : diagonal condensee et Crout ;
\item 34 : diagonal et solveur direct sur la verticale.
\end{itemize}'
AIDE1 = 'Choice of preconditioning for the diffusion of
vertical velocity. Possible choices are:
\begin{itemize}
\item 0: no preconditioning,
\item 2: diagonal,
\item 3: diagonal with the condensed matrix,
\item 5: diagonal with absolute values,
\item 7: Crout,
\item 11: Gauss-Seidel EBE,
\item 13: matrix defined by the user,
\item 14: diagonal and Crout,
\item 17: direct solver on the vertical,
\item 21: diagonal condensed and Crout,
\item 34: diagonal and direct solver on the vertical.
\end{itemize}'

NOM = 'SOLVEUR POUR LA DIFFUSION DES VITESSES'
NOM1 = 'SOLVER FOR DIFFUSION OF VELOCITIES'
TYPE = ENTIER
INDEX = 33
MNEMO = 'SLVDVI\%SLV'
TAILLE = 0
DEFAUT = 1
DEFAUT1 = 1
CHOIX = '1="GRADIENT CONJUGUE"';
        '2="RESIDU CONJUGUE"';
        '3="GRADIENT CONJUGUE SUR EQUATION NORMALE"';
        '4="ERREUR MINIMALE"';
        '5="GRADIENT CONJUGUE CARRE"';
        '6="CGSTAB"';
        '7="GMRES"';
        '8="SOLVEUR DIRECT"'
CHOIX1 = '1="conjugate gradient"';
         '2="conjugate residual"';
         '3="conjugate gradient on a normal equation"';
         '4="minimum error"';
         '5="squared conjugate gradient"';
         '6="cgstab"';
         '7="gmres"';
         '8="direct solver"'
RUBRIQUE = 'EQUATIONS, DIFFUSION';'GENERAL'
RUBRIQUE1 = 'EQUATIONS, DIFFUSION';'GENERAL'
NIVEAU = 1
COMPORT =
'Foreground ("EQUATIONS, DIFFUSION*GENERAL")
IS BRUT (brown)'
AIDE = 'Permet de choisir le solveur utilise pour la resolution
de la diffusion des vitesses $U$ et $V$.
Les choix possibles sont :
\begin{itemize}
\item 1 : gradient conjugue ;
\item 2 : residu conjugue ;
\item 3 : gradient conjugue sur equation normale ;
\item 4 : erreur minimale ;
\item 5 : gradient conjugue carre ;
\item 6 : CGSTAB ;
\item 7 : GMRES ;
\item 8 : solveur direct.
\end{itemize}'
AIDE1 = 'Choice of the solver for the diffusion of velocities
$U$ and $V$.
Possible choices are:
\begin{itemize}
\item 1: conjugate gradient,
\item 2: conjugate residual,
\item 3: conjugate gradient on a normal equation,
\item 4: minimum error,
\item 5: squared conjugate gradient,
\item 6: CGSTAB,
\item 7: GMRES,
\item 8: direct solver.
\end{itemize}'

NOM = 'SOLVEUR POUR LA DIFFUSION DES TRACEURS'
NOM1 = 'SOLVER FOR DIFFUSION OF TRACERS'
TYPE = ENTIER
INDEX = 34
MNEMO = 'SLVDTA(ITRAC)\%SLV'
TAILLE = 2
CHOIX = '1="GRADIENT CONJUGUE"';
        '2="RESIDU CONJUGUE"';
        '3="GRADIENT CONJUGUE SUR EQUATION NORMALE"';
        '4="ERREUR MINIMALE"';
        '5="GRADIENT CONJUGUE CARRE"';
        '6="CGSTAB"';
        '7="GMRES"';
        '8="SOLVEUR DIRECT"'
CHOIX1 = '1="conjugate gradient"';
         '2="conjugate residual"';
         '3="conjugate gradient on a normal equation"';
         '4="minimum error"';
         '5="squared conjugate gradient"';
         '6="cgstab"';
         '7="gmres"';
         '8="direct solver"'
RUBRIQUE = 'EQUATIONS, DIFFUSION';'GENERAL'
RUBRIQUE1 = 'EQUATIONS, DIFFUSION';'GENERAL'
NIVEAU = 1
COMPORT =
'Foreground ("EQUATIONS, DIFFUSION*GENERAL")
IS BRUT (brown)'
AIDE = 'Permet de choisir le solveur utilise pour la resolution de
la diffusion des traceurs.
Les choix possibles sont :
\begin{itemize}
\item 1 : gradient conjugue ;
\item 2 : residu conjugue ;
\item 3 : gradient conjugue sur equation normale ;
\item 4 : erreur minimale ;
\item 5 : gradient conjugue carre ;
\item 6 : CGSTAB ;
\item 7 : GMRES ;
\item 8 : solveur direct.
\end{itemize}'
AIDE1 = 'Choice of the solver for the diffusion of tracers.
Possible choices are:
\begin{itemize}
\item 1: conjugate gradient,
\item 2: conjugate residual,
\item 3: conjugate gradient on a normal equation,
\item 4: minimum error,
\item 5: squared conjugate gradient,
\item 6: CGSTAB,
\item 7: GMRES,
\item 8: direct solver.
\end{itemize}'

NOM = 'PERIODE DE COUPLAGE POUR TOMAWAC'
NOM1 = 'COUPLING PERIOD FOR TOMAWAC'
TYPE = ENTIER
INDEX = 35
MNEMO = 'PERCOU\_WAC'
TAILLE = 0
DEFAUT = 1
DEFAUT1 = 1
RUBRIQUE = 'PARAMETRES NUMERIQUES';'GENERAL'
RUBRIQUE1 = 'NUMERICAL PARAMETERS';'GENERAL'
NIVEAU = 1
AIDE = 'Fixe la periode de couplage avec le module \tomawac,
en nombre de pas de temps.
Par defaut, il est couple a chaque pas de temps.'
AIDE1 = 'Sets the coupling period with the \tomawac module, in number
of time steps. By default, it is coupled at every time step.'

NOM = 'SOLVEUR POUR LA DIFFUSION DU K-EPSILON'
NOM1 = 'SOLVER FOR DIFFUSION OF K-EPSILON'
TYPE = ENTIER
INDEX = 36
MNEMO = 'SLVDKE\%SLV'
TAILLE = 0
DEFAUT = 1
DEFAUT1 = 1
CHOIX = '1="GRADIENT CONJUGUE"';
        '2="RESIDU CONJUGUE"';
        '3="GRADIENT CONJUGUE SUR EQUATION NORMALE"';
        '4="ERREUR MINIMALE"';
        '5="GRADIENT CONJUGUE CARRE"';
        '6="CGSTAB"';
        '7="GMRES"';
        '8="SOLVEUR DIRECT"'
CHOIX1 = '1="conjugate gradient"';
         '2="conjugate residual"';
         '3="conjugate gradient on a normal equation"';
         '4="minimum error"';
         '5="squared conjugate gradient"';
         '6="cgstab"';
         '7="gmres"';
         '8="direct solver"'
RUBRIQUE = 'EQUATIONS, DIFFUSION';'GENERAL'
RUBRIQUE1 = 'EQUATIONS, DIFFUSION';'GENERAL'
NIVEAU = 1
COMPORT =
'Foreground ("EQUATIONS, DIFFUSION*GENERAL")
IS BRUT (brown)'
AIDE = 'Permet de choisir le solveur utilise pour la resolution de
la diffusion du modele $k$-$\epsilon$.
Les choix possibles sont :
\begin{itemize}
\item 1 : gradient conjugue ;
\item 2 : residu conjugue ;
\item 3 : gradient conjugue sur equation normale ;
\item 4 : erreur minimale ;
\item 5 : gradient conjugue carre ;
\item 6 : CGSTAB ;
\item 7 : GMRES ;
\item 8 : solveur direct.
\end{itemize}'
AIDE1 = 'Choice of the solver for the diffusion of $k$ and $\epsilon$.
Possible choices are:
\begin{itemize}
\item 1: conjugate gradient,
\item 2: conjugate residual,
\item 3: conjugate gradient on a normal equation,
\item 4: minimum error,
\item 5: squared conjugate gradient,
\item 6: CGSTAB,
\item 7: GMRES,
\item 8: direct solver.
\end{itemize}'

NOM = 'SOLVEUR POUR LA PROPAGATION'
NOM1 = 'SOLVER FOR PROPAGATION'
TYPE = ENTIER
INDEX = 37
MNEMO = 'SLVPRO\%SLV'
TAILLE = 0
DEFAUT = 1
DEFAUT1 = 1
CHOIX = '1="GRADIENT CONJUGUE"';
        '2="RESIDU CONJUGUE"';
        '3="GRADIENT CONJUGUE SUR EQUATION NORMALE"';
        '4="ERREUR MINIMALE"';
        '5="GRADIENT CONJUGUE CARRE"';
        '6="CGSTAB"';
        '7="GMRES"';
        '8="SOLVEUR DIRECT"'
CHOIX1 = '1="conjugate gradient"';
         '2="conjugate residual"';
         '3="conjugate gradient on a normal equation"';
         '4="minimum error"';
         '5="squared conjugate gradient"';
         '6="cgstab"';
         '7="gmres"';
         '8="direct solver"'
RUBRIQUE = 'EQUATIONS';'PROPAGATION'
RUBRIQUE1 = 'EQUATIONS';'PROPAGATION'
NIVEAU = 1
AIDE = 'Permet de choisir le solveur utilise pour la resolution de
l''etape de propagation.
Les choix possibles sont :
\begin{itemize}
\item 1 : gradient conjugue ;
\item 2 : residu conjugue ;
\item 3 : gradient conjugue sur equation normale ;
\item 4 : erreur minimale ;
\item 5 : gradient conjugue carre ;
\item 6 : CGSTAB ;
\item 7 : GMRES ;
\item 8 : solveur direct.
\end{itemize}'
AIDE1 = 'Choice of the solver for the propagation equation.
Possible choices are:
\begin{itemize}
\item 1: conjugate gradient,
\item 2: conjugate residual,
\item 3: conjugate gradient on a normal equation,
\item 4: minimum error,
\item 5: squared conjugate gradient,
\item 6: CGSTAB,
\item 7: GMRES,
\item 8: direct solver.
\end{itemize}'

NOM = 'SOLVEUR POUR LA VITESSE VERTICALE'
NOM1 = 'SOLVER FOR VERTICAL VELOCITY'
TYPE = ENTIER
INDEX = 38
MNEMO = 'SLVW\%SLV'
TAILLE = 0
DEFAUT = 1
DEFAUT1 = 1
CHOIX = '1="GRADIENT CONJUGUE"';
        '2="RESIDU CONJUGUE"';
        '3="GRADIENT CONJUGUE SUR EQUATION NORMALE"';
        '4="ERREUR MINIMALE"';
        '5="GRADIENT CONJUGUE CARRE"';
        '6="CGSTAB"';
        '7="GMRES"';
        '8="SOLVEUR DIRECT"'
CHOIX1 = '1="conjugate gradient"';
         '2="conjugate residual"';
         '3="conjugate gradient on a normal equation"';
         '4="minimum error"';
         '5="squared conjugate gradient"';
         '6="cgstab"';
         '7="gmres"';
         '8="direct solver"'
RUBRIQUE = 'EQUATIONS';'GENERAL'
RUBRIQUE1 = 'EQUATIONS';'GENERAL'
NIVEAU = 1
AIDE = 'Permet de choisir le solveur utilise pour le calcul de
la vitesse verticale $W$. Les choix possibles sont :
\begin{itemize}
\item 1 : gradient conjugue ;
\item 2 : residu conjugue ;
\item 3 : gradient conjugue sur equation normale ;
\item 4 : erreur minimale ;
\item 5 : gradient conjugue carre ;
\item 6 : CGSTAB ;
\item 7 : GMRES ;
\item 8 : solveur direct.
\end{itemize}'
AIDE1 = 'Choice of the solver for the diffusion of vertical velocity
$W$. Possible choices are:
\begin{itemize}
\item 1: conjugate gradient,
\item 2: conjugate residual,
\item 3: conjugate gradient on a normal equation,
\item 4: minimum error,
\item 5: squared conjugate gradient,
\item 6: CGSTAB,
\item 7: GMRES,
\item 8: direct solver.
\end{itemize}'

NOM = 'MAXIMUM D''ITERATIONS POUR LA DIFFUSION DES VITESSES'
NOM1 = 'MAXIMUM NUMBER OF ITERATIONS FOR DIFFUSION OF VELOCITIES'
TYPE = ENTIER
INDEX = 39
MNEMO = 'SLVDVI\%NITMAX'
TAILLE = 0
DEFAUT = 60
DEFAUT1 = 60
RUBRIQUE = 'EQUATIONS, DIFFUSION';'GENERAL'
RUBRIQUE1 = 'EQUATIONS, DIFFUSION';'GENERAL'
NIVEAU = 1
AIDE = 'Limite le nombre d''iterations du solveur a chaque pas
de temps pour le calcul de la diffusion de la vitesse.'
AIDE1 = 'Limits the number of solver iterations for the diffusion of
velocities.'

NOM = 'MAXIMUM D''ITERATIONS POUR LA DIFFUSION DES TRACEURS'
NOM1 = 'MAXIMUM NUMBER OF ITERATIONS FOR DIFFUSION OF TRACERS'
TYPE = ENTIER
INDEX = 40
MNEMO = 'SLVDTA(ITRAC)\%NITMAX'
TAILLE = 0
DEFAUT = 60
DEFAUT1 = 60
RUBRIQUE = 'EQUATIONS, DIFFUSION';'TRACEUR'
RUBRIQUE1 = 'EQUATIONS, DIFFUSION';'TRACER'
NIVEAU = 1
COMPORT =
'Foreground ("EQUATIONS, DIFFUSION*TRACEUR")
IS BRUT (brown)'
AIDE = 'Limite le nombre d''iterations du solveur a chaque pas
de temps pour le calcul de la diffusion des traceurs.'
AIDE1 = 'Limits the number of solver iterations for the diffusion of
tracers.'

NOM = 'PERIODE DE COUPLAGE POUR SISYPHE'
NOM1 = 'COUPLING PERIOD FOR SISYPHE'
TYPE = ENTIER
INDEX = 41
MNEMO = 'PERCOU\_SIS'
TAILLE = 0
DEFAUT = 1
DEFAUT1 = 1
RUBRIQUE = 'PARAMETRES NUMERIQUES';'GENERAL'
RUBRIQUE1 = 'NUMERICAL PARAMETERS';'GENERAL'
NIVEAU = 1
AIDE = 'Fixe la periode de couplage avec le module \sisyphe,
en nombre de pas de temps.
Par defaut, il est couple a chaque pas de temps.'
AIDE1 = 'Sets the coupling period with the \sisyphe module, in number
of time steps. By default, it is coupled at every time step.'

NOM = 'MAXIMUM D''ITERATIONS POUR LA DIFFUSION DU K-EPSILON'
NOM1 = 'MAXIMUM NUMBER OF ITERATIONS FOR DIFFUSION OF K-EPSILON'
TYPE = ENTIER
INDEX = 42
MNEMO = 'SLVDKE\%NITMAX'
TAILLE = 0
DEFAUT = 200
DEFAUT1 = 200
RUBRIQUE = 'PARAMETRES NUMERIQUES';'MODELE K-EPSILON'
RUBRIQUE1 = 'NUMERICAL PARAMETERS';'K-EPSILON MODEL'
NIVEAU = 1
COMPORT =
'Foreground ("PARAMETRES NUMERIQUES*MODELE K-EPSILON")
IS BRUT (blue)'
AIDE = 'Fixe le nombre maximum d''iterations accepte lors de la
resolution du systeme diffusion-termes sources du modele
$k$-$\epsilon$.'
AIDE1 = 'Limits the number of solver iterations for the diffusion of
$k$-$\epsilon$.'

NOM = 'MAXIMUM D''ITERATIONS POUR LA PROPAGATION'
NOM1 = 'MAXIMUM NUMBER OF ITERATIONS FOR PROPAGATION'
TYPE = ENTIER
INDEX = 43
MNEMO = 'SLVPRO\%NITMAX'
TAILLE = 0
DEFAUT = 200
DEFAUT1 = 200
RUBRIQUE = 'EQUATIONS';'PROPAGATION'
RUBRIQUE1 = 'EQUATIONS';'PROPAGATION'
NIVEAU = 1
COMPORT =
'Foreground ("EQUATIONS*PROPAGATION")
IS BRUT (blue)'
AIDE = 'Les algorithmes utilises pour la resolution de l''etape de
propagation etant iteratifs; il est necessaire de limiter le nombre
d''iterations autorisees.
Remarque : un maximum de 40 iterations par pas de temps semble
raisonnable.'
AIDE1 = 'Since the algorithms used for solving the propagation step are
iterative, the allowed number of iterations should be limited.
NOTE: a maximum number of 40 iterations per time step seems to be
reasonable.'

NOM = 'MAXIMUM D''ITERATIONS POUR LA VITESSE VERTICALE'
NOM1 = 'MAXIMUM NUMBER OF ITERATIONS FOR VERTICAL VELOCITY'
TYPE = ENTIER
INDEX = 44
MNEMO = 'SLVW\%NITMAX'
TAILLE = 0
DEFAUT = 100
DEFAUT1 = 100
RUBRIQUE = 'EQUATIONS';'GENERAL'
RUBRIQUE1 = 'EQUATIONS';'GENERAL'
NIVEAU = 1
AIDE = 'Fixe le nombre maximum d''iterations accepte lors de la
resolution du calcul de la vitesse verticale.'
AIDE1 = 'Limits the number of solver iterations for the diffusion of
 vertical velocity.'

NOM = 'PROCESSEURS PARALLELES'
NOM1 = 'PARALLEL PROCESSORS'
TYPE = ENTIER
INDEX = 45
MNEMO = 'NCSIZE'
TAILLE = 0
DEFAUT = 0
DEFAUT1 = 0
RUBRIQUE = 'EQUATIONS';'GENERAL'
RUBRIQUE1 = 'EQUATIONS';'GENERAL'
NIVEAU = 1
AIDE = 'Nombre de processeurs pour la decomposition en parallele.
La valeur 0 correspond a un calcul scalaire.'
AIDE1 = 'Number of processors for domain partition.
Value 0 corresponds to a scalar computation.'

NOM = 'PARTITIONNEUR'
NOM1 = 'PARTITIONING TOOL'
TYPE = CARACTERE
INDEX = 101
DEFAUT  = 'METIS'
DEFAUT1 = 'METIS'
CHOIX  = '"METIS"';'"SCOTCH"';'"PARMETIS"';'"PTSCOTCH"'
CHOIX1  = '"METIS"';'"SCOTCH"';'"PARMETIS"';'"PTSCOTCH"'
NIVEAU = 1
RUBRIQUE = 'PARAMETRES NUMERIQUES';'GENERAL'
RUBRIQUE1 = 'NUMERICAL PARAMETERS';'GENERAL'
AIDE = 'Choix du partitionneur :
\begin{itemize}
\item 1 : METIS ;
\item 2 : SCOTCH ;
\item 3 : PARMETIS ;
\item 4 : PTSCOTCH.
\end{itemize}'
AIDE1 = 'Partitioning tool selection:
\begin{itemize}
\item 1: METIS,
\item 2: SCOTCH,
\item 3: PARMETIS,
\item 4: PTSCOTCH.
\end{itemize}'

NOM = 'TRAITEMENT SUR LES BANCS DECOUVRANTS POUR LES VITESSES'
NOM1 = 'TREATMENT ON TIDAL FLATS FOR VELOCITIES'
TYPE = ENTIER
INDEX = 46
MNEMO = 'TRBAVI'
TAILLE = 0
CHOIX = '0="FORCAGE A ZERO"';
        '1="VALEUR AVANT MASQUAGE"'
CHOIX1 = '0="FORCED TO ZERO"';
         '1="VALUE BEFORE MASKED"'
DEFAUT = 0
DEFAUT1 = 0
RUBRIQUE = 'EQUATIONS';'GENERAL'
RUBRIQUE1 = 'EQUATIONS';'GENERAL'
NIVEAU = 1
AIDE = 'Traitement sur les bancs decouvrants a l''etape de diffusion.
\begin{itemize}
\item 0 : forcage a zero ;
\item 1 : valeur avant masquage.
\end{itemize}'
AIDE1 = 'Treatment of tidal flats at the diffusion step for velocities.
\begin{itemize}
\item 0: forced to zero,
\item 1: value before masked.
\end{itemize}'

NOM = 'TRAITEMENT SUR LES BANCS DECOUVRANTS POUR LES TRACEURS'
NOM1 = 'TREATMENT ON TIDAL FLATS FOR TRACERS'
TYPE = ENTIER
INDEX = 47
MNEMO = 'TRBATA'
TAILLE = 0
CHOIX = '0="FORCAGE A ZERO"';
        '1="VALEUR AVANT MASQUAGE"'
CHOIX1 = '0="FORCED TO ZERO"';
         '1="VALUE BEFORE MASKED"'
DEFAUT = 0
DEFAUT1 = 0
RUBRIQUE = 'EQUATIONS';'GENERAL'
RUBRIQUE1 = 'EQUATIONS';'GENERAL'
NIVEAU = 1
AIDE = 'Traitement sur les bancs decouvrants a l''etape de diffusion.
\begin{itemize}
\item 0 : forcage a zero ;
\item 1 : valeur avant masquage.
\end{itemize}'
AIDE1 = 'Treatment of tidal flats at the diffusion step for tracers.
\begin{itemize}
\item 0: forced to zero,
\item 1: value before masked.
\end{itemize}'

NOM = 'CONDITION A LA LIMITE AU FOND'
NOM1 = 'BOUNDARY CONDITION ON THE BOTTOM'
TYPE = ENTIER
INDEX = 48
MNEMO = 'BC\_BOTTOM'
TAILLE = 0
CHOIX = '1="LOI LOGARITHMIQUE POUR LES VITESSES AU FOND"';
        '2="VITESSES NULLES AU FOND"'
CHOIX1 = '1="LOG LAW FOR VELOCITIES ON BOTTOM"';
         '2="NO SLIP FOR VELOCITIES ON BOTTOM"'
DEFAUT = 1
DEFAUT1 = 1
RUBRIQUE = 'EQUATIONS';'GENERAL'
RUBRIQUE1 = 'EQUATIONS';'GENERAL'
NIVEAU = 1
AIDE = 'Specifie le type de conditions aux limites au fond.
Les choix possibles sont :
\item 1 : conditions de Neumann pour les vitesses au fond;
\item 2 : vitesses nulles au fond. Va de pair logiquement avec
 un bon raffinement du maillage au fond'
AIDE1 = 'Specifies the type of boundary conditions on the bottom
layer. Possible choices are:
\begin{itemize}
\item 1: Neumann conditions on velocity on bottom,
\item 2: velocities will be set to 0. Should be linked to
a refined mesh near the bottom.
\end{itemize}'

NOM = 'TRAITEMENT SUR LES BANCS DECOUVRANTS POUR LE K-EPSILON'
NOM1 = 'TREATMENT ON TIDAL FLATS FOR K-EPSILON'
TYPE = ENTIER
INDEX = 49
MNEMO = 'TRBAKE'
TAILLE = 0
CHOIX = '0="FORCAGE A ZERO"';
        '1="VALEUR AVANT MASQUAGE"'
CHOIX1 = '0="FORCED TO ZERO"';
         '1="VALUE BEFORE MASKED"'
DEFAUT = 0
DEFAUT1 = 0
RUBRIQUE = 'EQUATIONS';'GENERAL'
RUBRIQUE1 = 'EQUATIONS';'GENERAL'
NIVEAU = 1
AIDE = 'Traitement sur les bancs decouvrants a l''etape de diffusion
pour $k$ et $\epsilon$.
\begin{itemize}
\item 0 : forcage a zero ;
\item 1 : valeur avant masquage.
\end{itemize}'
AIDE1 = 'Treatment of tidal flats at the diffusion step for $k$ and
$\epsilon$.
\begin{itemize}
\item 0: forced to zero,
\item 1: value before masked.
\end{itemize}'

NOM = 'PAS DE TEMPS'
NOM1 = 'TIME STEP'
TYPE = REEL
INDEX = 1
MNEMO = 'DT'
TAILLE = 0
DEFAUT = 1.
DEFAUT1 = 1.
RUBRIQUE = 'PARAMETRES NUMERIQUES';'DUREE DU CALCUL'
RUBRIQUE1 = 'NUMERICAL PARAMETERS';'DURATION'
NIVEAU = 1
AIDE = 'Definit le pas de temps en secondes.
Remarque : Pour une bonne precision, il est souhaitable de choisir
le pas de temps de telle sorte que le nombre de Courant de propagation
soit inferieur a 2, voire 3.
Ceci peut etre realisable en hydraulique fluviale, mais ne l''est
pratiquement jamais en hydraulique maritime ou l''on peut atteindre
des valeurs de 50.'
AIDE1 = 'Specifies the time step in seconds.'

NOM = 'ACCELERATION DE LA PESANTEUR'
NOM1 = 'GRAVITY ACCELERATION'
TYPE = REEL
INDEX = 2
MNEMO = 'GRAV'
TAILLE = 0
DEFAUT = 9.81
DEFAUT1 = 9.81
RUBRIQUE = 'CONSTANTES PHYSIQUES'
RUBRIQUE1 = 'PHYSICAL CONSTANTS'
COMPORT =
'Foreground ("CONSTANTES PHYSIQUES")
IS BRUT (yellow)'
NIVEAU = 1
AIDE = 'Fixe la valeur de l''acceleration de la pesanteur en m/s$^2$.'
AIDE1 = 'Sets the value of the acceleration due to gravity in m/s$^2$.'

NOM = 'COEFFICIENT DE CORIOLIS'
NOM1 = 'CORIOLIS COEFFICIENT'
TYPE = REEL
INDEX = 3
MNEMO = 'FCOR'
TAILLE = 0
DEFAUT = 0.
DEFAUT1 = 0.
RUBRIQUE = 'CONSTANTES PHYSIQUES'
RUBRIQUE1 = 'PHYSICAL CONSTANTS'
NIVEAU = 1
COMPORT =
'Foreground ("CONSTANTES PHYSIQUES")
IS BRUT (brown)'
AIDE = 'Fixe la valeur du coefficient de la force de Coriolis.
Celui-ci doit etre calcule en fonction de la latitude $l$
par la formule
$FCOR = 2 \omega sin(l)$ ,
$\omega$ etant la vitesse de rotation de la terre.
$\omega$ = 7.29 10-5 rad/s.\\
Les composantes de la force de Coriolis sont alors :\\
$FU =  FCOR \times V,$\\
$FV = -FCOR \times U.$
Lorsqu''on utilise les coordonnees spheriques, le coefficient de
Coriolis est calcule automatiquement.'
AIDE1 = 'Sets the value of the Coriolis force coefficient,
in cartesian coordinates.
This coefficient, denoted \telfile{FCOR} in the code, should be equal to
$2 \omega \sin(l)$  where $\omega$ denotes the earth angular speed of
rotation and $l$ the latitude. $\omega$ = 7.29 10-5 rad/s.\\
The Coriolis force components are then:\\
$FU =  FCOR \times V,$\\
$FV = -FCOR \times U.$\\
When using the spherical coordinates, the Coriolis coefficient is
automatically computed.'

NOM = 'COEFFICIENT D''INFLUENCE DU VENT'
NOM1 = 'COEFFICIENT OF WIND INFLUENCE'
TYPE = REEL
INDEX = 4
MNEMO = 'FAIR'
TAILLE = 0
DEFAUT = 0.
DEFAUT1 = 0.
RUBRIQUE = 'EQUATIONS';'VENT';'VALEURS NUMERIQUES'
RUBRIQUE1 = 'EQUATIONS';'WIND';'NUMERICS VALUES'
NIVEAU = 1
COMPORT =
'Foreground ("EQUATIONS*VENT*VALEURS NUMERIQUES")
IS BRUT (brown)'
AIDE = 'Fixe la valeur du coefficient d''entrainement du vent.
Voir le manuel utilisateur pour la valeur a donner.'
AIDE1 = 'Sets the value of the wind driving coefficient.
See the User Manual for the value to give.'

NOM = 'VITESSE DU VENT SUIVANT X'
NOM1 = 'WIND VELOCITY ALONG X'
TYPE = REEL
INDEX = 5
MNEMO = 'FUAIR'
TAILLE = 0
DEFAUT = 0.
DEFAUT1 = 0.
RUBRIQUE = 'EQUATIONS';'VENT';'VALEURS NUMERIQUES'
RUBRIQUE1 = 'EQUATIONS';'WIND';'NUMERICS VALUES'
NIVEAU = 1
AIDE = 'Composante de la vitesse du vent suivant
l''axe des $x$ (m/s), si constante.'
AIDE1 = 'Wind velocity, component along $x$ axis (m/s), if constant.'

NOM = 'VITESSE DU VENT SUIVANT Y'
NOM1 = 'WIND VELOCITY ALONG Y'
TYPE = REEL
INDEX = 6
MNEMO = 'FVAIR'
TAILLE = 0
DEFAUT = 0.
DEFAUT1 = 0.
RUBRIQUE = 'EQUATIONS';'VENT';'VALEURS NUMERIQUES'
RUBRIQUE1 = 'EQUATIONS';'WIND';'NUMERICS VALUES'
NIVEAU = 1
AIDE = 'Composante de la vitesse du vent suivant
l''axe des $y$ (m/s), si constante.'
AIDE1 = 'Wind velocity, component along $y$ axis (m/s), if constant.'

NOM = 'COEFFICIENT DE DILATATION BETA POUR LES TRACEURS'
NOM1 = 'BETA EXPANSION COEFFICIENT FOR TRACERS'
TYPE = REEL
INDEX = 8
MNEMO = 'BETAC'
TAILLE = 2
RUBRIQUE = 'CONSTANTES PHYSIQUES'
RUBRIQUE1 = 'PHYSICAL CONSTANTS'
NIVEAU = 1
AIDE = 'Unite : K$^{-1}$.
Ce coefficient permet de definir l''evolution de la densite de
l''eau en fonction de la concentration en traceur lors de
l''utilisation de la valeur 4 du mot cle
\telkey{LOI DE DENSITE}.'
AIDE1 = 'Unit: K$^{-1}$.
This coefficient is used to define the evolution of the water density
with respect to the tracer concentration when using
\telkey{LAW OF DENSITY} = 4.'

NOM = 'VALEURS DE REFERENCE DES TRACEURS'
NOM1 = 'STANDARD VALUES FOR TRACERS'
TYPE = REEL
INDEX = 9
MNEMO = 'T0AC'
TAILLE = 2
RUBRIQUE = 'EQUATIONS, TRACEUR'
RUBRIQUE1 = 'EQUATIONS, TRACER'
NIVEAU = 1
AIDE = 'Valeur du traceur pour laquelle la densite est donnee.'
AIDE1 = 'Reference value of tracers corresponding to the given density.'

NOM = 'MASSE VOLUMIQUE MOYENNE DE L''EAU'
NOM1 = 'AVERAGE WATER DENSITY'
TYPE = REEL
INDEX = 10
MNEMO = 'RHO0'
TAILLE = 0
DEFAUT = 1025.
DEFAUT1 = 1025.
RUBRIQUE = 'CONSTANTES PHYSIQUES'
RUBRIQUE1 = 'PHYSICAL CONSTANTS'
NIVEAU = 1
AIDE = 'Valeur de la densite moyenne dans le domaine, voir
\telfile{DRSURR}.'
AIDE1 = 'Average water density in the domain, see subroutine
\telfile{DRSURR}.'

NOM = 'COEFFICIENT DE FROTTEMENT POUR LE FOND'
NOM1 = 'FRICTION COEFFICIENT FOR THE BOTTOM'
TYPE = REEL
INDEX = 11
MNEMO = 'RUGOF0'
TAILLE = 0
DEFAUT = 60.
DEFAUT1 = 60.
RUBRIQUE = 'EQUATIONS';'FROTTEMENT'
RUBRIQUE1 = 'EQUATIONS';'FRICTION'
NIVEAU = 1
COMPORT =
'Foreground ("EQUATIONS*FROTTEMENT")
IS BRUT (brown)'
AIDE = 'Fixe la valeur du coefficient de frottement au fond,
si constant.'
AIDE1 = 'Friction coefficient on the bottom, if constant.'

NOM = 'COEFFICIENT DE FROTTEMENT POUR LES PAROIS LATERALES'
NOM1 = 'FRICTION COEFFICIENT FOR LATERAL SOLID BOUNDARIES'
TYPE = REEL
INDEX = 12
MNEMO = 'RUGOL0'
TAILLE = 0
DEFAUT = 60.
DEFAUT1 = 60.
RUBRIQUE = 'EQUATIONS';'FROTTEMENT'
RUBRIQUE1 = 'EQUATIONS';'FRICTION'
NIVEAU = 1
COMPORT =
'Foreground ("EQUATIONS*FROTTEMENT")
IS BRUT (brown)'
AIDE = 'Fixe la valeur du coefficient de frottement sur les parois,
si constant.'
AIDE1 = 'Friction coefficient on the lateral boundaries, if constant.'

NOM = 'ZERO'
NOM1 = 'ZERO'
TYPE = REEL
INDEX = 13
MNEMO = ''
TAILLE = 0
DEFAUT = 1.E-10
DEFAUT1 = 1.E-10
RUBRIQUE = 'PARAMETRES NUMERIQUES';'GENERAL'
RUBRIQUE1 = 'NUMERICAL PARAMETERS';'GENERAL'
NIVEAU = -13
AIDE = 'Non active pour l''instant.'
AIDE1 = 'Not used so far.'

NOM = 'VALEUR MINIMALE POUR LA HAUTEUR'
NOM1 = 'MINIMAL VALUE FOR DEPTH'
TYPE = REEL
INDEX = 14
MNEMO = 'HMIN'
TAILLE = 0
DEFAUT = -1000.
DEFAUT1 = -1000.
RUBRIQUE = 'PARAMETRES NUMERIQUES';'VITESSE-CELERITE-HAUTEUR'
RUBRIQUE1 = 'NUMERICAL PARAMETERS';'VELOCITY-CELERITY-DEPTH'
NIVEAU = 1
AIDE = 'Fixe la valeur minimale de $H$.'
AIDE1 = 'Sets the minimum water depth value $H$.'

NOM = 'PROFONDEUR MOYENNE POUR LA LINEARISATION'
NOM1 = 'MEAN DEPTH FOR LINEARIZATION'
TYPE = REEL
INDEX = 15
MNEMO = 'HAULIN'
TAILLE = 0
DEFAUT = 0.
DEFAUT1 = 0.
RUBRIQUE = 'EQUATIONS';'HAUTEUR'
RUBRIQUE1 = 'EQUATIONS';'DEPTH'
NIVEAU = 1
COMPORT =
'Foreground ("EQUATIONS*HAUTEUR")
IS BRUT (brown)'
AIDE = 'Fixe la hauteur d''eau autour de laquelle s''effectue la
linearisation lorsque l''option \telkey{PROPAGATION LINEARISEE} est
choisie.'
AIDE1 = 'Sets the water depth about which the linearization is done when
the \telkey{LINEARIZED PROPAGATION} option is selected.'

NOM = 'COEFFICIENT DE DIFFUSION HORIZONTAL DES VITESSES'
NOM1 = 'COEFFICIENT FOR HORIZONTAL DIFFUSION OF VELOCITIES'
TYPE = REEL
INDEX = 16
MNEMO = 'DNUVIH'
TAILLE = 0
DEFAUT = 1.E-6
DEFAUT1 = 1.E-6
RUBRIQUE = 'EQUATIONS';'MODELE DE TURBULENCE';'VISCOSITE CONSTANTE'
RUBRIQUE1 = 'EQUATIONS';'TURBULENCE MODEL';'CONSTANT VISCOSITY'
NIVEAU = 1
COMPORT =
'Foreground ("EQUATIONS*MODELE DE TURBULENCE*VISCOSITE CONSTANTE")
IS BRUT (brown)'
AIDE = 'Fixe de facon uniforme pour l''ensemble du domaine;
la valeur du coefficient de diffusion de viscosite globale (dynamique +
turbulente). Cette valeur peut avoir une influence non negligeable sur
la forme et la taille des recirculations.'
AIDE1 = 'Sets, in an even way for the whole domain, the value of the
coefficient of global (dynamic+turbulent) viscosity
for the horizontal direction. This value may
have a significant effect both on the shapes and sizes of
recirculation zones.'

NOM = 'COEFFICIENT DE DIFFUSION VERTICAL DES VITESSES'
NOM1 = 'COEFFICIENT FOR VERTICAL DIFFUSION OF VELOCITIES'
TYPE = REEL
INDEX = 17
MNEMO = 'DNUVIV'
TAILLE = 0
DEFAUT = 1.E-6
DEFAUT1 = 1.E-6
RUBRIQUE = 'EQUATIONS';'MODELE DE TURBULENCE';'VISCOSITE CONSTANTE'
RUBRIQUE1 = 'EQUATIONS';'TURBULENCE MODEL';'CONSTANT VISCOSITY'
NIVEAU = 1
COMPORT =
'Foreground ("EQUATIONS*MODELE DE TURBULENCE*VISCOSITE CONSTANTE")
IS BRUT (brown)'
AIDE = 'Fixe de facon uniforme pour l''ensemble du domaine;
la valeur du coefficient de diffusion de viscosite globale (dynamique +
turbulente). Cette valeur peut avoir une influence non negligeable sur
la forme et la taille des recirculations.'
AIDE1 = 'Sets, in an even way for the whole domain, the value of the
coefficient of global (dynamic+turbulent) viscosity
for the horizontal direction. This value may
have a significant effect both on the shapes and sizes of
recirculation zones.'

NOM = 'COEFFICIENT DE DIFFUSION HORIZONTAL DES TRACEURS'
NOM1 = 'COEFFICIENT FOR HORIZONTAL DIFFUSION OF TRACERS'
TYPE = REEL
INDEX = 18
MNEMO = 'DNUTAH'
TAILLE = 2
RUBRIQUE = 'EQUATIONS';'MODELE DE TURBULENCE';'VISCOSITE CONSTANTE'
RUBRIQUE1 = 'EQUATIONS';'TURBULENCE MODEL';'CONSTANT VISCOSITY'
NIVEAU = 1
COMPORT =
'Foreground ("EQUATIONS*MODELE DE TURBULENCE*VISCOSITE CONSTANTE")
IS BRUT (brown)'
AIDE = 'Fixe les valeurs de coefficients de diffusion horizontal des
traceurs.  L''influence de ce parametre sur l''evolution des traceurs
dans le temps est importante.
C est un tableau depuis la version 7.1, avec une valeur par traceur,
separation par un point virgule.'
AIDE1 = 'Sets the values of the horizontal diffusion of tracers.
These values may have a significant effect on the evolution of
tracers in time.
Since version 7.1, it has been an array, with one value per tracer,
separated by semicolons.'

NOM = 'COEFFICIENT DE DIFFUSION VERTICAL DES TRACEURS'
NOM1 = 'COEFFICIENT FOR VERTICAL DIFFUSION OF TRACERS'
TYPE = REEL
INDEX = 19
MNEMO = 'DNUTAV'
TAILLE = 2
RUBRIQUE = 'EQUATIONS';'MODELE DE TURBULENCE';'VISCOSITE CONSTANTE'
RUBRIQUE1 = 'EQUATIONS';'TURBULENCE MODEL';'CONSTANT VISCOSITY'
NIVEAU = 1
COMPORT =
'Foreground ("EQUATIONS*MODELE DE TURBULENCE*VISCOSITE CONSTANTE")
IS BRUT (brown)'
AIDE = 'Fixe les valeurs de coefficients de diffusion vertical des
traceurs.  L''influence de ce parametre sur l''evolution des traceurs
dans le temps est importante.
C est un tableau depuis la version 7.1, avec une valeur par traceur,
separation par un point virgule.'
AIDE1 = 'Sets the values of the vertical diffusion of tracers.
These values may have a significant effect on the evolution of
tracers in time.
Since version 7.1, it has been an array, with one value per tracer,
separated by semicolons.'

NOM = 'VALEURS INITIALES DES TRACEURS'
NOM1 = 'INITIAL VALUES OF TRACERS'
TYPE = REEL
INDEX = 20
MNEMO = 'TRAC0'
TAILLE = 2
RUBRIQUE = 'PARAMETRES NUMERIQUES'
RUBRIQUE1 = 'NUMERICAL PARAMETERS'
NIVEAU = 1
AIDE = 'Fixe la valeur initiale des traceurs.'
AIDE1 = 'Sets the initial values of tracers.'

NOM = 'PRECISION POUR LA DIFFUSION DU SEDIMENT'
NOM1 = 'ACCURACY FOR DIFFUSION OF SEDIMENT'
TYPE = REEL
INDEX = 21
MNEMO = 'SLVDSE\%EPS'
TAILLE = 0
DEFAUT = 1.E-6
DEFAUT1 = 1.E-6
RUBRIQUE = 'EQUATIONS';'MODELE DE TURBULENCE';'VISCOSITE CONSTANTE'
RUBRIQUE1 = 'EQUATIONS';'TURBULENCE MODEL';'CONSTANT VISCOSITY'
NIVEAU = 1
AIDE = 'Fixe la precision demandee pour le calcul de la diffusion
des sediments.'
AIDE1 = 'Sets the accuracy needed for the computation of the
diffusion of sediments.'

NOM = 'PRECISION POUR LA DIFFUSION DES VITESSES'
NOM1 = 'ACCURACY FOR DIFFUSION OF VELOCITIES'
TYPE = REEL
INDEX = 22
MNEMO = 'SLVDVI\%EPS'
TAILLE = 0
DEFAUT = 1.E-5
DEFAUT1 = 1.E-5
RUBRIQUE = 'EQUATIONS';'MODELE DE TURBULENCE';'VISCOSITE CONSTANTE'
RUBRIQUE1 = 'EQUATIONS';'TURBULENCE MODEL';'CONSTANT VISCOSITY'
NIVEAU = 1
AIDE = 'Fixe la precision demandee pour le calcul de la diffusion
de la vitesse.'
AIDE1 = 'Sets the accuracy needed for the computation of the
diffusion of the velocities.'

NOM = 'PRECISION POUR LA DIFFUSION DES TRACEURS'
NOM1 = 'ACCURACY FOR DIFFUSION OF TRACERS'
TYPE = REEL
INDEX = 23
MNEMO = 'SLVDTA(ITRAC)\%EPS'
TAILLE = 0
DEFAUT = 1.E-6
DEFAUT1 = 1.E-6
RUBRIQUE = 'EQUATIONS';'MODELE DE TURBULENCE';'VISCOSITE CONSTANTE'
RUBRIQUE1 = 'EQUATIONS';'TURBULENCE MODEL';'CONSTANT VISCOSITY'
NIVEAU = 1
AIDE = 'Fixe la precision demandee pour le calcul de la diffusion
des traceurs.'
AIDE1 = 'Sets the accuracy needed for the computation of
the diffusion of the tracers.'

NOM = 'SEUIL POUR CORRECTION DE VISCOSITE SUR BANCS DECOUVRANTS'
NOM1 = 'THRESHOLD FOR VISCOSITY CORRECTION ON TIDAL FLATS'
TYPE = REEL
INDEX = 24
MNEMO = 'HLIM'
TAILLE = 0
DEFAUT = 0.2
DEFAUT1 = 0.2
RUBRIQUE = 'PARAMETRES NUMERIQUES'
RUBRIQUE1 = 'NUMERICAL PARAMETERS'
NIVEAU = 1
AIDE = 'Pour les profondeurs inferieures, la viscosite sera
progressivement reduite. Voir le sous-programme
\telfile{VISCLIP}.'
AIDE1 = 'Below the threshold, viscosity will be progressively
cancelled. See subroutine \telfile{VISCLIP}.'

NOM = 'SEUIL LIMITE POUR EROSION SUR BANCS DECOUVRANTS'
NOM1 = 'THRESHOLD FOR SEDIMENT FLUX CORRECTION ON TIDAL FLATS'
TYPE = REEL
INDEX = 36
MNEMO = 'HSED'
TAILLE = 0
DEFAUT = 0.2
DEFAUT1 = 0.2
RUBRIQUE = 'PARAMETRES NUMERIQUES'
RUBRIQUE1 = 'NUMERICAL PARAMETERS'
NIVEAU = 1
AIDE = 'Pour les profondeurs inferieures a cette valeur limite, le flux
sedimentaire sera nul. Voir le sous-programme \telfile{FLUSED}.'
AIDE1 = 'Below this limiting depth, all sediment erosion rates are set
to zero. See subroutine \telfile{FLUSED}.'


NOM = 'PRECISION POUR LA DIFFUSION DU K-EPSILON'
NOM1 = 'ACCURACY FOR DIFFUSION OF K-EPSILON'
TYPE = REEL
INDEX = 25
MNEMO = 'SLVDKE\%EPS'
TAILLE = 0
DEFAUT = 1.E-6
DEFAUT1 = 1.E-6
RUBRIQUE = 'EQUATIONS';'MODELE DE TURBULENCE';'VISCOSITE CONSTANTE'
RUBRIQUE1 = 'EQUATIONS';'TURBULENCE MODEL';'CONSTANT VISCOSITY'
NIVEAU = 1
AIDE = 'Fixe la precision demandee pour le calcul de la diffusion
du $k$-$\epsilon$.'
AIDE1 = 'Sets the accuracy needed for the computation of the
diffusion of the $k$-$\epsilon$ model.'

NOM = 'PRECISION POUR LA PROPAGATION'
NOM1 = 'ACCURACY FOR PROPAGATION'
TYPE = REEL
INDEX = 26
MNEMO = 'SLVPRO\%EPS'
TAILLE = 0
DEFAUT = 1.E-6
DEFAUT1 = 1.E-6
RUBRIQUE = 'EQUATIONS';'PROPAGATION'
RUBRIQUE1 = 'EQUATIONS';'PROPAGATION'
NIVEAU = 1
AIDE = 'Fixe la precision demandee pour l''etape de propagation.'
AIDE1 = 'Sets the accuracy needed for the computation
of the propagation step.'

NOM = 'PRECISION POUR LA VITESSE VERTICALE'
NOM1 = 'ACCURACY FOR VERTICAL VELOCITY'
TYPE = REEL
INDEX = 27
MNEMO = 'SLVW\%EPS'
TAILLE = 0
DEFAUT = 1.E-6
DEFAUT1 = 1.E-6
RUBRIQUE = 'EQUATIONS';'GENERAL'
RUBRIQUE1 = 'EQUATIONS';'GENERAL'
NIVEAU = 1
AIDE = 'Fixe la precision demandee pour le calcul de la vitesse
verticale.'
AIDE1 = 'Sets the accuracy needed for the computation
of the vertical velocity.'

NOM = 'IMPLICITATION POUR LA HAUTEUR'
NOM1 = 'IMPLICITATION FOR DEPTH'
TYPE = REEL
INDEX = 28
MNEMO = 'TETAH'
TAILLE = 0
DEFAUT = 0.55
DEFAUT1 = 0.55
RUBRIQUE = 'PARAMETRES NUMERIQUES';'VITESSE-CELERITE-HAUTEUR'
RUBRIQUE1 = 'NUMERICAL PARAMETERS';'VELOCITY-CELERITY-DEPTH'
NIVEAU = 1
AIDE = 'Fixe la valeur du coefficient d''implicitation sur la hauteur
d''eau dans l''etape de propagation (cf. Note de principe).
Les valeurs inferieures a 0.5 donnent un schema instable.'
AIDE1 = 'Sets the value of the implicitation coefficient for water
depth in the propagation step (cf. Principe note).
The values lower than 0.5 give an instable scheme.'

NOM = 'IMPLICITATION POUR LES VITESSES'
NOM1 = 'IMPLICITATION FOR VELOCITIES'
TYPE = REEL
INDEX = 29
MNEMO = 'TETAU'
TAILLE = 0
DEFAUT = 1.
DEFAUT1 = 1.
RUBRIQUE = 'PARAMETRES NUMERIQUES';'VITESSE-CELERITE-HAUTEUR'
RUBRIQUE1 = 'NUMERICAL PARAMETERS';'VELOCITY-CELERITY-DEPTH'
NIVEAU = 1
AIDE = 'Fixe la valeur du coefficient d''implicitation sur la vitesse
dans l''etape de propagation (cf.  Note de principe).
Les valeurs inferieures a 0.5 donnent un schema instable.'
AIDE1 = 'Sets the value of the implicitation coefficient
for the velocity
in the propagation step (cf. Principe note).
The values lower than 0.5 give an instable scheme.'

NOM = 'MASS-LUMPING POUR LA HAUTEUR'
NOM1 = 'MASS-LUMPING FOR DEPTH'
TYPE = REEL
INDEX = 30
MNEMO = 'AGGLOH'
TAILLE = 0
DEFAUT = 0.
DEFAUT1 = 0.
RUBRIQUE = 'PARAMETRES NUMERIQUES';'VITESSE-CELERITE-HAUTEUR'
RUBRIQUE1 = 'NUMERICAL PARAMETERS';'VELOCITY-CELERITY-DEPTH'
NIVEAU = 1
AIDE = '\telemac{3d} offre la possibilite d''effectuer du
mass-lumping sur $H$ ou $U$.
Ceci revient a ramener tout ou partie (suivant la valeur de ce
coefficient) des matrices \telfile{AM1 (H)} ou \telfile{AM2 (U)}
et \telfile{AM3 (V)} sur leur diagonale.
Cette technique permet d''accelerer le code dans des proportions tres
importantes et de le rendre egalement beaucoup plus stable. Cependant
les solutions obtenues se trouvent lissees.
Ce parametre fixe le taux de mass-lumping effectue sur $H$.
Utilisation deconseillee.'
AIDE1 = '\telemac{3d} offers the posibility to perform mass-lumping
on $H$ or $U$.
This gathers all or part (given the value of the coefficient)
of the \telfile{AM1(H)} or \telfile{AM2(Ut)} and \telfile{AM3(V)}
matrices on their diagonal.
This technique can speed-up the code a lot and also render it
more stable.
Yet, the solutions are smoothened.
This parameter sets the mass-lumping amount done for $H$.
Not recommended for use.'

NOM = 'MASS-LUMPING POUR LES VITESSES'
NOM1 = 'MASS-LUMPING FOR VELOCITIES'
TYPE = REEL
INDEX = 31
MNEMO = 'AGGLOU'
TAILLE = 0
DEFAUT = 0.
DEFAUT1 = 0.
RUBRIQUE = 'PARAMETRES NUMERIQUES';'VITESSE-CELERITE-HAUTEUR'
RUBRIQUE1 = 'NUMERICAL PARAMETERS';'VELOCITY-CELERITY-DEPTH'
NIVEAU = 1
AIDE = 'Fixe le taux de mass-lumping effectue sur la vitesse.
Utilisation deconseillee.'
AIDE1 = 'Sets the amount of mass-lumping that is performed on
the velocity. Not recommended for use.'

NOM = 'DEBITS IMPOSES'
NOM1 = 'PRESCRIBED FLOWRATES'
TYPE = REEL
INDEX = 33
MNEMO = 'DEBIMP'
TAILLE = 10
RUBRIQUE = 'PARAMETRES NUMERIQUES'
RUBRIQUE1 = 'NUMERICAL PARAMETERS'
NIVEAU = 1
AIDE = 'Fixe le debit sur les frontieres a debit impose.'
AIDE1 = 'Sets the value for flow rate on flow
rate-imposed boundaries.'

NOM = 'COTES IMPOSEES'
NOM1 = 'PRESCRIBED ELEVATIONS'
TYPE = REEL
INDEX = 34
MNEMO = 'COTIMP'
TAILLE = 10
RUBRIQUE = 'PARAMETRES NUMERIQUES'
RUBRIQUE1 = 'NUMERICAL PARAMETERS'
NIVEAU = 1
AIDE = 'Fixe la cote sur les frontieres a cote imposee.'
AIDE1 = 'Sets the elevation on elevation-imposed boundaries.'

NOM = 'VITESSES IMPOSEES'
NOM1 = 'PRESCRIBED VELOCITIES'
TYPE = REEL
INDEX = 35
MNEMO = 'VITIMP'
TAILLE = 10
RUBRIQUE = 'PARAMETRES NUMERIQUES'
RUBRIQUE1 = 'NUMERICAL PARAMETERS'
NIVEAU = 1
AIDE = 'Fixe la vitesse sur les frontieres a vitesse imposee.'
AIDE1 = 'Sets the magnitude of velocity on velocity-imposed boundaries.'

NOM = 'TITRE'
NOM1 = 'TITLE'
TYPE = CARACTERE
INDEX = 1
MNEMO = 'TITCAS'
TAILLE = 0
DEFAUT = ' '
DEFAUT1 = ' '
RUBRIQUE = 'ENTREES-SORTIES, GENERALITES';'CALCUL'
RUBRIQUE1 = 'INPUT-OUTPUT, INFORMATION';'COMPUTATIONAL INFORMATION'
NIVEAU = 1
COMPORT =
'Foreground ("ENTREES-SORTIES, GENERALITES*CALCUL")
IS BRUT (red)'
AIDE = 'Titre du cas etudie.'
AIDE1 = 'Title of the case being considered.'

NOM = 'VARIABLES POUR LES SORTIES GRAPHIQUES 3D'
NOM1 = 'VARIABLES FOR 3D GRAPHIC PRINTOUTS'
TYPE = CARACTERE
INDEX = 2
MNEMO = 'SORT3D'
DEFAUT = 'Z,U,V,W'
DEFAUT1 = 'Z,U,V,W'
CHOIX = 'U="vitesse suivant l''axe des x (m/s)"';
'V="vitesse suivant l''axe des y (m/s)"';
'W="vitesse suivant l''axe des z (m/s)"';
'Z="cote z (m)"';
'TA1="concentration du traceur 1"';
'TA2="concentration du traceur 2"';
'TA3="concentration du traceur 3"';
'TA4="concentration du traceur 4"';
'TA5="concentration du traceur 5"';
'TA6="concentration du traceur 6"';
'TA7="concentration du traceur 7"';
'TA8="concentration du traceur 8"';
'TA9="concentration du traceur 9"';
'TA*="concentrations des traceurs de 1 a 9"';
'TA**="concentrations des traceurs de 10 a 99"';
'NUX="viscosite pour U et V suivant l''axe des x (m2/s)"';
'NUY="viscosite pour U et V suivant l''axe des y (m2/s)"';
'NUZ="viscosite pour U et V suivant l''axe des z (m2/s)"';
'NAX="viscosites pour les tr. suivant l''axe des x (m2/s)"';
'NAY="viscosites pour les tr. suivant l''axe des y (m2/s)"';
'NAZ="viscosites pour les tr. suivant l''axe des z (m2/s)"';
'RI="nombre de Richardson en cas de modele de longueur de melange"';
'K="energie turbulente du modele k-epsilon (J/kg)"';
'EPS="dissipation de l''energie turbulente (W/kg)"';
'DP="pression dynamique (multipliee par DT/RHO)"';
'PH="pression hydrostatique (en Pascals)"';
'RHO="densite relative"';
'P1="variable privee 1"';
'P2="variable privee 2"';
'P3="variable privee 3"';
'P4="variable privee 4"'
CHOIX1 = 'U="velocity along x axis (m/s)"';
'V="velocity along y axis (m/s)"';
'W="velocity along z axis (m/s)"';
'Z="elevation z (m)"';
'TA1="concentration for tracer 1"';
'TA2="concentration for tracer 2"';
'TA3="concentration for tracer 3"';
'TA4="concentration for tracer 4"';
'TA5="concentration for tracer 5"';
'TA6="concentration for tracer 6"';
'TA7="concentration for tracer 7"';
'TA8="concentration for tracer 8"';
'TA9="concentration for tracer 9"';
'TA*="concentrations for tracers from 1 to 9"';
'TA**="concentrations for tracers from 10 to 99"';
'NUX="viscosity for U and V along x axis (m2/s)"';
'NUY="viscosity for U and V along y axis (m2/s)"';
'NUZ="viscosity for U and V along z axis (m2/s)"';
'NAX="viscosity for tracers along x axis (m2/s)"';
'NAY="viscosity for tracers along y axis (m2/s)"';
'NAZ="viscosity for tracers along z axis (m2/s)"';
'RI="Richardson number in case of mixing length model"';
'K="turbulent energie for k-epsilon model (J/kg)"';
'EPS="dissipation of turbulent energie (W/kg)"';
'DP="dynamic pressure (multiplied by DT/RHO)"';
'PH="hydrostatic pressure (in Pascals)"';
'RHO="relative density"';
'P1="private variable 1"';
'P2="private variable 2"';
'P3="private variable 3"';
'P4="private variable 4"'
RUBRIQUE = 'ENTREES-SORTIES, GRAPHIQUES ET LISTING'
RUBRIQUE1 = 'INPUT-OUTPUT, GRAPHICS AND LISTING'
NIVEAU = 1
COMPOSE=','
APPARENCE = 'packing IS XmPACK_COLUMN' ;
    'numColumns IS 23';'LISTE IS EDITABLE'
AIDE = 'Noms des variables que l''utilisateur veut ecrire dans
le \telkey{FICHIER DES RESULTATS 3D}.
Le choix des separateurs est libre.
Les possibilites offertes sont les suivantes :
\begin{itemize}
\item U   : vitesse suivant l''axe des $x$ (m/s) ;
\item V   : vitesse suivant l''axe des $y$ (m/s) ;
\item W   : vitesse suivant l''axe des $z$ (m/s) ;
\item Z   : cote $z$ (m) ;
\item TAx : concentrations des traceurs ;
\item NUX : viscosite pour $U$ et $V$ suivant l''axe des $x$ (m$^2$/s) ;
\item NUY : viscosite pour $U$ et $V$ suivant l''axe des $y$ (m$^2$/s) ;
\item NUZ : viscosite pour $U$ et $V$ suivant l''axe des $z$ (m$^2$/s) ;
\item NAX : viscosites pour les traceurs suivant l''axe des $x$
(m$^2$/s) ;
\item NAY : viscosites pour les traceurs suivant l''axe des $y$
(m$^2$/s) ;
\item NAZ : viscosites pour les traceurs suivant l''axe des $z$
(m$^2$/s) ;
\item RI  : nombre de Richardson en cas de modele de longueur de
melange ;
\item K   : energie turbulente du modele k-epsilon (J/kg) ;
\item EPS : dissipation de l''energie turbulente (W/kg) ;
\item DP  : pression dynamique (multipliee par DT/RHO) ;
\item PH  : pression hydrostatique (en Pascals) ;
\item RHO : densite relative ;
\item P1  : variable privee 1 ;
\item P2  : variable privee 2 ;
\item P3  : variable privee 3 ;
\item P4  : variable privee 4.
\end{itemize}'
AIDE1 = 'Names of variables to be written in the
\telkey{3D RESULT FILE}. Free choice of separator. You can ask for:
\begin{itemize}
\item U  : velocity along $x$ (m/s),
\item V  : velocity along $y$ (m/s),
\item W  : velocity along $z$ (m/s),
\item Z  : elevation $z$ (m),
\item TAx: concentration of tracers,
\item NUX: viscosity for $U$ and $V$ along $x$ (m$^2$/s),
\item NUY: viscosity for $U$ and $V$ along $y$ (m$^2$/s),
\item NUZ: viscosity for $U$ and $V$ along $z$ (m$^2$/s),
\item NAX: viscosity for tracers along $x$ (m$^2$/s),
\item NAY: viscosity for tracers along $y$ (m$^2$/s),
\item NAZ: viscosity for tracers along $z$ (m$^2$/s),
\item RI : Richardson number for mixing length model,
\item K  : turbulent kinetic energy for $k$-$\epsilon$ model (J/kg),
\item EPS: dissipation of turbulent kinetic energy (W/kg),
\item DP : dynamic pressure (multiplied by DT/RHO),
\item PH : hydrostatic pressure (Pa),
\item RHO: relative density,
\item P1 : private variable 1,
\item P2 : private variable 2,
\item P3 : private variable 3,
\item P4 : private variable 4.
\end{itemize}'

NOM = 'VARIABLES POUR LES SORTIES GRAPHIQUES 2D'
NOM1 = 'VARIABLES FOR 2D GRAPHIC PRINTOUTS'
TYPE = CARACTERE
INDEX = 3
MNEMO = 'SORT2D'
DEFAUT = 'U,V,H,B'
DEFAUT1 = 'U,V,H,B'
CHOIX = 'U="vitesse moyenne suivant l''axe des x (m/s)"';
        'V="vitesse moyenne suivant l''axe des y (m/s)"';
        'C="celerite (m/s)"';
        'H="hauteur d''eau (m)"';
        'S="cote de surface libre (m)"';
        'B="cote du fond (m)"';
'TA1="TAx concentrations des traceurs, x numero du traceur"';
        'F="nombre de Froude"';
        'Q="debit scalaire (m2/s)"';
        'I="debit suivant x (m2/s)"';
        'J="debit suivant y (m2/s)"';
        'M="norme de la vitesse (m/s)"';
        'X="vent suivant l''axe des x (m/s)"';
        'Y="vent suivant l''axe des y (m/s)"';
        'P="pression atmospherique (Pa)"';
        'W="coefficient de frottement"';
        'RB="cote des fonds non erodables (m)"';
        'HD="epaisseur du lit de sediment (m)"';
        'EF="flux d''erosion (kg/m2/s)"';
        'DF="flux de Depot (kg/m2/s)"';
        'DZF=" bed evolution "';
        'PRIVE1="tableau de travail PRIVE 1"';
        'PRIVE2="tableau de travail PRIVE 2"';
        'PRIVE3="tableau de travail PRIVE 3"';
        'PRIVE4="tableau de travail PRIVE 4"';
        'QS="debit solide (m2/s)"';
        'QSX="debit solide suivant x (m2/s)"';
        'QSY="debit solide suivant y (m2/s)"';
        'US="vitesse de frottement (m/s)"';
        'MAXZ="valeur maximum de la cote de
               l eau au cours du calcul (m)"';
        'TMXZ="temps correspondant a ce niveau maximum (s)"'
CHOIX1 = 'U="depth averaged velocity along x axis (m/s)"';
         'V="depth averaged velocity along y axis (m/s)"';
         'C="celerity (m/s)"';
         'H="water depth (m)"';
         'S="free surface elevation (m)"';
         'B="bottom elevation (m)"';
[...]
mud which remains in a layer goes into a more consolidated layer.'

NOM = 'OPTION DU MODELE DE TASSEMENT'
NOM1 = 'CONSOLIDATION MODEL'
TYPE = INTEGER
INDEX = 51
MNEMO = 'ITASS'
TAILLE = 1
DEFAUT = 1
DEFAUT1 = 1
RUBRIQUE = 'TASSEMENT'
RUBRIQUE1 = 'CONSOLIDATION'
NIVEAU = 2
AIDE = 'Choix du modele de tassement :
\begin{itemize}
\item 1 : Modele multicouches empirique ;
\item 2 : Modele de Gibson (Lenormant).
\end{itemize}'
AIDE1 ='Choice of the consolidation model:
\begin{itemize}
\item 1: Empirical multilayer model,
\item 2: Gibson model (Lenormant).
\end{itemize}'
/
/  VERSION 7.1
/
NOM = 'VERIFICATION DU MAILLAGE'
NOM1 = 'CHECKING THE MESH'
TYPE = LOGIQUE
INDEX = 21
/ in declarations\_telemac
MNEMO = 'CHECK\_MESH'
TAILLE = 0
DEFAUT = NON
DEFAUT1 = NO
RUBRIQUE = 'GENERAL'
RUBRIQUE1 = 'GENERAL'
NIVEAU = 1
AIDE = 'Si OUI on appelle le sous-programme \telfile{CHECKMESH}
qui verifie la coherence du maillage, points superposes, etc.'
AIDE1 = 'If this key word is equal to YES, a call to subroutine
\telfile{CHECKMESH} will look for errors in the mesh,
superimposed points, etc.'
/
NOM = 'NOMBRE DE TABLEAUX PRIVES 2D'
NOM1 = 'NUMBER OF 2D PRIVATE ARRAYS'
TYPE = ENTIER
INDEX = 118
MNEMO = 'NPRIV2D'
TAILLE = 0
DEFAUT = 0
DEFAUT1 = 0
RUBRIQUE = 'PARAMETRES NUMERIQUES';'GENERAL'
RUBRIQUE1 = 'NUMERICAL PARAMETERS';'GENERAL'
NIVEAU = 1
AIDE = 'Nombre de tableaux 2D mis a disposition de l utilisateur
dans le bloc PRIVE2D. Il doit etre inferieur ou egal a 4.'
AIDE1 = 'Number of 2D arrays for own user programming
in block \telfile{PRIVE2D}. It has to be lower or equal to 4.'

NOM = 'NOMS DES VARIABLES PRIVEES 2D'
NOM1 = 'NAMES OF 2D PRIVATE VARIABLES'
TYPE = CARACTERE
INDEX = 94
MNEMO = 'NAMES\_PRIVE2D'
TAILLE = 4
RUBRIQUE = 'ENTREES-SORTIES, FICHIERS';'NOMS'
RUBRIQUE1 = 'INPUT-OUTPUT, FILES';'NAMES'
NIVEAU = 1
COMPORT =
'Foreground ("ENTREES-SORTIES, FICHIERS*NOMS")
IS BRUT (red)'
AIDE = 'Noms des variables dans les tableaux prives 2D en 32
caracteres, 16 pour le nom 16 pour l''unite. Elles seront lues dans le
\telkey{FICHIER DE GEOMETRIE} si elles y sont.
Nombre maximum de 4 noms.'
AIDE1 = 'Name of variables in 2D private arrays in 32 characters,
16 for the name, 16 for the unit. If present, will be read
in the \telkey{GEOMETRY FILE}. Maximum number of 4 names.'
/
NOM = 'NUMERO LOCAL DU POINT POUR CALER LA PLEINE MER'
NOM1 = 'LOCAL NUMBER OF THE POINT TO CALIBRATE HIGH WATER'
TYPE = INTEGER
INDEX = 119
MNEMO = 'ICALHWB'
TAILLE = 0
DEFAUT = 0
DEFAUT1 = 0
RUBRIQUE = 'PARAMETRES NUMERIQUES';'GENERAL'
RUBRIQUE1 = 'NUMERICAL PARAMETERS';'GENERAL'
NIVEAU = 1
AIDE = 'Numero local du point entre 1 et le nombre de points
de frontiere maritime (du FICHIER DES CONSTANTES HARMONIQUES)
ou les conditions aux limites de maree sont calculees
avec les bases de donnees JMJ, NEA, FES, PREVIMER
(sauf les bases de type TPXO).
Les ondes de maree sont dephasees par rapport a ce point
pour debuter le calcul par une pleine mer
(en marees schematiques seulement).'
AIDE1= 'Local number between 1 and the number of tidal boundary points
(of the \telkey{HARMONIC CONSTANTS FILE}) where the tidal boundary
conditions are computed with JMJ, NEA, FES, PREVIMER databases
(except TPXO-type databases).
The tidal constituents have their phase shifted with respect to
this point to start the simulation with a high water
(for schematic tides only).'

NOM = 'NUMERO GLOBAL DU POINT POUR CALER LA PLEINE MER'
NOM1 = 'GLOBAL NUMBER OF THE POINT TO CALIBRATE HIGH WATER'
TYPE = INTEGER
INDEX = 120
MNEMO = 'ICALHWG'
TAILLE = 0
DEFAUT = 0
DEFAUT1 = 0
RUBRIQUE = 'PARAMETRES NUMERIQUES';'GENERAL'
RUBRIQUE1 = 'NUMERICAL PARAMETERS';'GENERAL'
NIVEAU = 1
AIDE = 'Numero global du point par rapport auquel
les ondes de maree sont dephasees
pour debuter le calcul par une pleine mer
(en marees schematiques seulement).
Ne concerne que les bases de constantes harmoniques de type TPXO.'
AIDE1= 'Global number of the point with respect to which
the tidal constituents have their phase shifted
to start the calculation with a high water
(for schematic tides only).
Only harmonic constants databases like TPXO are concerned.'

NOM = 'NOMBRE MAXIMUM DE FRONTIERES'
NOM1 = 'MAXIMUM NUMBER OF BOUNDARIES'
TYPE = INTEGER
INDEX = 121
MNEMO = 'MAXFRO'
TAILLE = 0
DEFAUT = 30
DEFAUT1 = 30
RUBRIQUE = 'GENERAL'
RUBRIQUE1 = 'GENERAL'
NIVEAU = 1
AIDE = 'Nombre maximal de frontieres differentes dans le maillage.
Sert au dimensionnement de la memoire, a augmenter si necessaire.'
AIDE1 = 'Maximal number of boundaries in the mesh.
Used for dimensioning arrays. Can be increased if needed.'

NOM = 'NOMBRE MAXIMUM DE SOURCES'
NOM1 = 'MAXIMUM NUMBER OF SOURCES'
TYPE = INTEGER
INDEX = 122
MNEMO = 'MAXSCE'
TAILLE = 0
DEFAUT = 20
DEFAUT1 = 20
RUBRIQUE = 'GENERAL'
RUBRIQUE1 = 'GENERAL'
NIVEAU = 1
AIDE = 'Nombre maximal de points sources dans le maillage,
incluant les sources ponctuelles et 2 fois le nombre de buses.
Sert au dimensionnement de la memoire, a augmenter si necessaire.'
AIDE1 = 'Maximal number of source points in the mesh, including
punctual sources and twice the number of culverts.
Used for dimensioning arrays. Can be increased if needed.'

NOM = 'NOMBRE MAXIMUM DE TRACEURS'
NOM1 = 'MAXIMUM NUMBER OF TRACERS'
TYPE = INTEGER
INDEX = 123
MNEMO = 'MAXTRA'
TAILLE = 0
DEFAUT = 20
DEFAUT1 = 20
RUBRIQUE = 'GENERAL'
RUBRIQUE1 = 'GENERAL'
NIVEAU = 1
AIDE = 'Nombre maximal de traceurs.
Sert au dimensionnement de la memoire, a augmenter si necessaire.'
AIDE1 = 'Maximal number of tracers.
Used for dimensioning arrays. Can be increased if needed.'

NOM = 'NOMBRE MAXIMUM DE FRONTIERES SUR LE FOND'
NOM1 = 'MAXIMUM NUMBER OF BOUNDARIES ON THE BED'
TYPE = INTEGER
INDEX = 124
MNEMO = 'MAXBLB'
TAILLE = 0
DEFAUT = 30
DEFAUT1 = 30
RUBRIQUE = 'GENERAL'
RUBRIQUE1 = 'GENERAL'
NIVEAU = 1
AIDE = 'Nombre maximal de frontieres liquides sur le fond.
Sert au dimensionnement de la memoire, a augmenter si necessaire.'
AIDE1 = 'Maximal number of liquid boundaries on the bed.
Used for dimensioning arrays. Can be increased if needed.'

NOM = 'OPTION POUR LES CONDITIONS AUX LIMITES DU K-EPSILON'
NOM1 = 'OPTION FOR THE BOUNDARY CONDITIONS OF K-EPSILON'
TYPE = ENTIER
INDEX = 56
MNEMO = 'OPTBCKE'
TAILLE = 0
DEFAUT = 1
DEFAUT1 = 1
CHOIX='1="pas de turbulence"';'2="Hans et Burchard"'
CHOIX1='1="no turbulence"';'2="Hans and Burchard"'
RUBRIQUE = 'MODELE DE TURBULENCE';'CONDITIONS LIMITES'
RUBRIQUE1 = 'TURBULENCE MODEL';'BOUNDARY CONDITIONS'
NIVEAU = 2
AIDE = 'Calcul des conditions aux limites laterales sur $k$ et
$\epsilon$. Les choix possibles sont :
\begin{itemize}
\item 1: pas de turbulence = les valeurs minimales \telfile{KMIN}
et \telfile{EMIN} definies dans \telfile{CSTKEP} ;
\item 2: formule de Hans et Burchard.
\end{itemize}'
AIDE1 = 'Computation of the lateral boundary conditions of $k$
and $\epsilon$. Possible choices are:
\begin{itemize}
\item 1: no turbulence = the minimum values \telfile{KMIN} and
\telfile{EMIN} defined in \telfile{CSTKEP},
\item 2: Hans and Burchard formula.
\end{itemize}'

/
/  VERSION 7.2
/
NOM = 'FICHIER DES PARAMETRES DE WAQTEL'
NOM1 = 'WAQTEL STEERING FILE'
TYPE = CARACTERE
INDEX = 95
MNEMO = ''
DEFAUT = ' '
DEFAUT1 = ' '
RUBRIQUE = 'ENTREES-SORTIES, FICHIERS';'NOMS'
APPARENCE = 'LISTE IS FICHIER'
RUBRIQUE1 = 'INPUT-OUTPUT, FILES';'NAMES'
NIVEAU = 1
AIDE = 'Fichier des parametres physiques pour les
processus de qualite d''eau (internes, pas ceux de DELWAQ).'
AIDE1 = 'File for physical parameters of water quality processes
(local ones of \telemac-TRACER not those of DELWAQ).'


NOM = 'PROCESSUS DE QUALITE D''EAU'
NOM1 = 'WATER QUALITY PROCESS'
TYPE = ENTIER
INDEX = 127
MNEMO = 'WAQPROCESS'
TAILLE = 1
DEFAUT = 0
DEFAUT1 = 0
RUBRIQUE = 'EQUATIONS, SOURCE';'TRACEUR'
RUBRIQUE1 = 'EQUATIONS, SOURCE';'TRACER'
NIVEAU = 1
AIDE = 'Donne le numero du processus de qualite d''eau
(de 1 a 5) :
\begin{itemize}
\item 0 : rien ;
\item 1 : O2 ;
\item 2 : BIOMASS ;
\item 3 : EUTRO ;
\item 4 : MICROPOL ;
\item 5 : THERMIC.
\end{itemize}'
AIDE1 = 'Gives the water quality process number (from 1 to 5):
\begin{itemize}
\item 0: nothing,
\item 1: O2,
\item 2: BIOMASS,
\item 3: EUTRO,
\item 4: MICROPOL,
\item 5: THERMIC.
\end{itemize}'

NOM = 'VALEUR DE LA PRESSION ATMOSPHERIQUE'
NOM1 = 'VALUE OF ATMOSPHERIC PRESSURE'
TYPE = REEL
INDEX = 107
MNEMO = 'PATMOS\_VALUE'
TAILLE = 1
DEFAUT = 100000.
DEFAUT1 = 100000.
RUBRIQUE = 'PARAMETRES PHYSIQUES'
RUBRIQUE1 = 'PHYSICAL PARAMETERS'
NIVEAU = 2
AIDE = 'Donne la valeur de la pression atmospherique lorsqu''elle est
constante en temps et en espace.'
AIDE1 = 'Gives the value of atmospheric pressure when it is constant
in time and space.'

NOM = 'OPTION DU SCHEMA POUR LA CONVECTION DES VITESSES'
NOM1 = 'SCHEME OPTION FOR ADVECTION OF VELOCITIES'
TYPE = ENTIER
INDEX = 59
MNEMO = 'OPTADV\_VI'
TAILLE = 1
DEFAUT = 1
DEFAUT1 = 1
RUBRIQUE = 'EQUATIONS, CONVECTION';'GENERAL'
RUBRIQUE1 = 'EQUATIONS, ADVECTION';'GENERAL'
NIVEAU = 1
AIDE = 'Si present remplace et a priorite sur :
\telkey{OPTION POUR LES CARACTERISTIQUES} et
\telkey{OPTION DE SUPG}.
Si schema PSI ou N :
\begin{itemize}
\item 1 : explicite ;
\item 2 : predicteur-correcteur ;
\item 3 : predicteur-correcteur deuxieme ordre en temps ;
\item 4 : implicite.
\end{itemize}'
AIDE1 = 'If present replaces and has priority over:
\telkey{OPTION FOR CHARACTERISTICS} and
\telkey{SUPG OPTION}.
If N or PSI scheme:
\begin{itemize}
\item 1: explicit,
\item 2: predictor-corrector,
\item 3: predictor-corrector second-order in time,
\item 4: implicit.
\end{itemize}'

NOM = 'OPTION DU SCHEMA POUR LA CONVECTION DU K-EPSILON'
NOM1 = 'SCHEME OPTION FOR ADVECTION OF K-EPSILON'
TYPE = ENTIER
INDEX = 63
MNEMO = 'OPTADV\_KE'
TAILLE = 1
DEFAUT = 1
DEFAUT1 = 1
RUBRIQUE = 'EQUATIONS, CONVECTION';'GENERAL'
RUBRIQUE1 = 'EQUATIONS, ADVECTION';'GENERAL'
NIVEAU = 1
AIDE = 'Si present remplace et a priorite sur :
\telkey{OPTION POUR LES CARACTERISTIQUES} et
\telkey{OPTION DE SUPG}.
Si schema PSI ou N :
\begin{itemize}
\item 1 : explicite ;
\item 2 : predicteur-correcteur ;
\item 3 : predicteur-correcteur deuxieme ordre en temps ;
\item 4 : implicite.
\end{itemize}'
AIDE1 = 'If present replaces and has priority over:
\telkey{OPTION FOR CHARACTERISTICS} and
\telkey{SUPG OPTION}.
If N or PSI scheme:
\begin{itemize}
\item 1: explicit,
\item 2: predictor-corrector,
\item 3: predictor-corrector second-order in time,
\item 4: implicit.
\end{itemize}'

NOM = 'OPTION DU SCHEMA POUR LA CONVECTION DES TRACEURS'
NOM1 = 'SCHEME OPTION FOR ADVECTION OF TRACERS'
TYPE = ENTIER
INDEX = 66
MNEMO = 'OPTADV\_TR'
TAILLE = 1
DEFAUT = 1
DEFAUT1 = 1
RUBRIQUE = 'EQUATIONS, CONVECTION';'GENERAL'
RUBRIQUE1 = 'EQUATIONS, ADVECTION';'GENERAL'
NIVEAU = 1
AIDE = 'Si present remplace et a priorite sur :
\telkey{OPTION POUR LES CARACTERISTIQUES} et
\telkey{OPTION DE SUPG}.
Si schema PSI ou N :
\begin{itemize}
\item 1 : explicite ;
\item 2 : predicteur-correcteur ;
\item 3 : predicteur-correcteur deuxieme ordre en temps ;
\item 4 : implicite.
\end{itemize}'
AIDE1 = 'If present replaces and has priority over:
\telkey{OPTION FOR CHARACTERISTICS} and
\telkey{SUPG OPTION}.
If N or PSI scheme:
\begin{itemize}
\item 1: explicit,
\item 2: predictor-corrector,
\item 3: predictor-corrector second-order in time,
\item 4: implicit.
\end{itemize}'

NOM = 'NOMBRE DE CORRECTIONS DES SCHEMAS DISTRIBUTIFS'
NOM1 = 'NUMBER OF CORRECTIONS OF DISTRIBUTIVE SCHEMES'
TYPE = ENTIER
INDEX = 67
MNEMO = 'NCO\_DIST'
TAILLE = 0
DEFAUT = 1
DEFAUT1 = 1
NIVEAU = 2
RUBRIQUE = 'PARAMETRES NUMERIQUES';'GENERAL'
RUBRIQUE1 = 'NUMERICAL PARAMETERS';'GENERAL'
AIDE = 'Pour les options avec predicteur-correcteur.'
AIDE1 = 'For predictor-corrector options.'

NOM = 'NOMBRE DE SOUS-PAS DES SCHEMAS DISTRIBUTIFS'
NOM1 = 'NUMBER OF SUB-STEPS OF DISTRIBUTIVE SCHEMES'
TYPE = ENTIER
INDEX = 68
MNEMO = 'NSP\_DIST'
TAILLE = 0
DEFAUT = 1
DEFAUT1 = 1
NIVEAU = 2
RUBRIQUE = 'PARAMETRES NUMERIQUES';'GENERAL'
RUBRIQUE1 = 'NUMERICAL PARAMETERS';'GENERAL'
AIDE = 'Pour les options predicteur-correcteur
avec schema localement implicite.'
AIDE1 = 'Only for implicit scheme with predictor-corrector.'

NOM = 'CORRECTION DE CONTINUITE SUR FRONTIERES OUVERTES'
NOM1 = 'CONTINUITY CORRECTION ON OPEN BOUNDARIES'
TYPE = LOGIQUE
INDEX = 93
MNEMO = 'CONCOR'
TAILLE = 1
DEFAUT = NO
DEFAUT1 = NO
NIVEAU = 2
RUBRIQUE = 'PARAMETRES NUMERIQUES';'GENERAL'
RUBRIQUE1 = 'NUMERICAL PARAMETERS';'GENERAL'
AIDE = 'Modifie les vitesses libres sur les frontieres ouvertes
pour avoir un meilleur champ a divergence nulle.'
AIDE1 = 'Changes the free velocities on open boundaries to get
a better divergence-free field.'

/
/ FOR SCRIPTS
/
/---------------------------------------------------------------------
/
NOM = 'DICTIONNAIRE'
NOM1 = 'DICTIONARY'
TYPE = CARACTERE
INDEX = 100
MNEMO = ''
SUBMIT = 'INUTILE;T3DDICO;OBLIG;ASC;LIT;DICO'
DEFAUT = 'telemac3d.dico'
DEFAUT1 = 'telemac3d.dico'
RUBRIQUE = 'ENTREES-SORTIES, GENERALITES';'ENVIRONNEMENT'
RUBRIQUE1 = 'INPUT-OUTPUT, INFORMATION';'COMPUTATION ENVIRONMENT'
NIVEAU = -3
AIDE ='Dictionnaire des mots cles.'
AIDE1 ='Key word dictionary.'
/
NOM = 'LISTE DES FICHIERS'
NOM1 = 'LIST OF FILES'
TYPE = CARACTERE
INDEX = 99
/
MNEMO = ''
TAILLE = 46
DEFAUT  = 'FICHIER DES PARAMETRES';
          'DICTIONNAIRE';
          'FICHIER FORTRAN';
          'FICHIER DE GEOMETRIE';
          'FICHIER DES CONDITIONS AUX LIMITES';
          'FICHIER DU CALCUL PRECEDENT';
          'FICHIER DES RESULTATS 3D';
          'FICHIER DES FONDS';
          'FICHIER DES RESULTATS 2D';
          'FICHIER DE DONNEES FORMATE 1';
          'FICHIER DE DONNEES FORMATE 2';
          'FICHIER DE DONNEES BINAIRE 1';
          'FICHIER DE DONNEES BINAIRE 2';
          'FICHIER DES RESULTATS SEDIMENTOLOGIQUES';
          'FICHIER SEDIMENTOLOGIQUE DU CALCUL PRECEDENT';
          'FICHIER DE REFERENCE';
          'FICHIER DES RESULTATS POUR SUBIEF-3D';
          'FICHIER DES FRONTIERES LIQUIDES';
          'FICHIER DELWAQ DES VOLUMES';
          'FICHIER DELWAQ DES SURFACES DE FLUX';
          'FICHIER DELWAQ DES FLUX VERTICAUX';
          'FICHIER DELWAQ DE LA SALINITE';
          'FICHIER DELWAQ DES SURFACES DU FOND';
          'FICHIER DELWAQ DES ECHANGES ENTRE NOEUDS';
          'FICHIER DELWAQ DES DISTANCES ENTRE NOEUDS';
          'FICHIER DELWAQ DE LA TEMPERATURE';
          'FICHIER DELWAQ DE LA VITESSE';
          'FICHIER DELWAQ DE LA DIFFUSION';
          'FICHIER DE COMMANDE DELWAQ';
          'FICHIER DES COURBES DE TARAGE';
          'FICHIER DES SOURCES';
          'FICHIER DE RESULTATS BINAIRE';
          'FICHIER DE RESULTATS FORMATE';
          'FICHIER DE COMMANDES HYDROCARBURES';
          'FICHIER POUR SUITE';
          'FICHIER DES CONSTANTES HARMONIQUES';
          'FICHIER DU MODELE DE MAREE';
          'BASE ASCII DE DONNEES DE MAREE';
          'BASE BINAIRE 1 DE DONNEES DE MAREE';
          'BASE BINAIRE 2 DE DONNEES DE MAREE';
          'FICHIER DES FLOTTEURS';
          'FICHIER POUR SUITE 2D';
          'FICHIER DE DONNEES DES BUSES';
          'FICHIER ASCII DE DONNEES ATMOSPHERIQUES';
          'FICHIER BINAIRE DE DONNEES ATMOSPHERIQUES';
          'FICHIER BINAIRE DE DONNEES DE FRONTIERE'
DEFAUT1 = 'STEERING FILE';
          'DICTIONARY';
          'FORTRAN FILE';
          'GEOMETRY FILE';
          'BOUNDARY CONDITIONS FILE';
          'PREVIOUS COMPUTATION FILE';
          '3D RESULT FILE';
          'BOTTOM TOPOGRAPHY FILE';
          '2D RESULT FILE';
          'FORMATTED DATA FILE 1';
          'FORMATTED DATA FILE 2';
          'BINARY DATA FILE 1';
          'BINARY DATA FILE 2';
          'SEDIMENTOLOGICAL RESULT FILE';
          'PREVIOUS COMPUTATION SEDIMENTOLOGICAL FILE';
          'REFERENCE FILE';
          'RESULT FILE FOR SUBIEF-3D';
          'LIQUID BOUNDARIES FILE';
          'VOLUMES DELWAQ FILE';
          'EXCHANGE AREAS DELWAQ FILE';
          'VERTICAL FLUXES DELWAQ FILE';
          'SALINITY DELWAQ FILE';
          'BOTTOM SURFACES DELWAQ FILE';
          'EXCHANGES BETWEEN NODES DELWAQ FILE';
          'NODES DISTANCES DELWAQ FILE';
          'TEMPERATURE DELWAQ FILE';
          'VELOCITY DELWAQ FILE';
          'DIFFUSIVITY DELWAQ FILE';
          'DELWAQ STEERING FILE';
          'STAGE-DISCHARGE CURVES FILE';
          'SOURCES FILE';
          'BINARY RESULTS FILE';
          'FORMATTED RESULTS FILE';
          'RESTART FILE';
          'OIL SPILL STEERING FILE';
          'HARMONIC CONSTANTS FILE';
          'TIDAL MODEL FILE';
          'ASCII DATABASE FOR TIDE';
          'BINARY DATABASE 1 FOR TIDE';
          'BINARY DATABASE 2 FOR TIDE';
          'DROGUES FILE';
          'FILE FOR 2D CONTINUATION';
          'CULVERTS DATA FILE';
          'ASCII ATMOSPHERIC DATA FILE';
          'BINARY ATMOSPHERIC DATA FILE';
          'BINARY BOUNDARY DATA FILE'
RUBRIQUE  = 'FICHIERS'
RUBRIQUE1 = 'FILES'
NIVEAU = 1
AIDE = 'Noms des fichiers exploites par le code.'
AIDE1= 'File names of the used files.'
/
//
//----Librairies du code-------------------------------------------
//
//Conventions de notation :
//   VVV = version
//   MMM = mode (debug ou non)
//   PPP = plateforme
//   LLL = extension d'une librairie ("a" ou "lib")
//    |  = seperateur dans un path (/ sous Unix, \ sous NT)
//
//    ex : "telemac2d|tel2d_VVV|PPP|telemac2dMMMVVV.LLL"
//----Librairies du code-------------------------------------------
//
//Conventions de notation :
//   VVV = version
//   MMM = mode (debug ou non)
//   PPP = plateforme
//   LLL = extension d'une librairie ("a" ou "lib")
//    |  = seperateur dans un path (/ sous Unix, \ sous NT)
//
//    ex : "telemac2d|tel2d_VVV|PPP|telemac2dMMMVVV.LLL"
/
NOM = 'DESCRIPTION DES LIBRAIRIES'
NOM1 = 'DESCRIPTION OF LIBRARIES'
TYPE = CARACTERE
INDEX = 80
MNEMO = 'LINKLIBS'
TAILLE = 11
DEFAUT = 'builds|PPP|lib|telemac3dMMMVVV.LLL';
'builds|PPP|lib|telemac2dMMMVVV.LLL';
'builds|PPP|lib|tomawacMMMVVV.LLL';
'builds|PPP|lib|sisypheMMMVVV.LLL';
'builds|PPP|lib|nestorMMMVVV.LLL';
'builds|PPP|lib|waqtelMMMVVV.LLL';
'builds|PPP|lib|biefMMMVVV.LLL';
'builds|PPP|lib|hermesMMMVVV.LLL';
'builds|PPP|lib|damoMMMVVV.LLL';
'builds|PPP|lib|parallelMMMVVV.LLL';
'builds|PPP|lib|specialMMMVVV.LLL'
DEFAUT1 = 'builds|PPP|lib|telemac3dMMMVVV.LLL';
'builds|PPP|lib|telemac2dMMMVVV.LLL';
'builds|PPP|lib|tomawacMMMVVV.LLL';
'builds|PPP|lib|sisypheMMMVVV.LLL';
'builds|PPP|lib|nestorMMMVVV.LLL';
'builds|PPP|lib|waqtelMMMVVV.LLL';
'builds|PPP|lib|biefMMMVVV.LLL';
'builds|PPP|lib|hermesMMMVVV.LLL';
'builds|PPP|lib|damoMMMVVV.LLL';
'builds|PPP|lib|parallelMMMVVV.LLL';
'builds|PPP|lib|specialMMMVVV.LLL'

RUBRIQUE = 'ENTREES-SORTIES, GENERALITES';'CALCUL'
RUBRIQUE1 = 'INPUT-OUTPUT, INFORMATION';'COMPUTATIONAL INFORMATION'
NIVEAU = 1
AIDE  = 'Description des bibliotheques de \telemac{3d}.'
AIDE1 = 'Libraries description of \telemac{3d}.'

//----Executable par defaut du code---------------------------------
//
//Conventions de notation :
//   VVV = version
//   MMM = mode (debug ou non)
//   PPP = plateforme
//    |  = separateur dans un path (/ sous Unix, \ sous NT)
//
//    ex : "telemac3d|tel3d_VVV|PPP|telemac3dMMMVVV.LLL"

NOM = 'EXECUTABLE PAR DEFAUT'
NOM1 = 'DEFAULT EXECUTABLE'
TYPE = CARACTERE
INDEX = 81
MNEMO = 'EXEDEF'
TAILLE = 1
DEFAUT  = 'builds|PPP|bin|telemac3dMMMVVV.exe'
DEFAUT1 = 'builds|PPP|bin|telemac3dMMMVVV.exe'
RUBRIQUE = 'ENTREES-SORTIES, GENERALITES';'CALCUL'
RUBRIQUE1 = 'INPUT-OUTPUT, INFORMATION';'COMPUTATIONAL INFORMATION'
NIVEAU = 1
AIDE  = 'Executable par defaut de \telemac{3d}.'
AIDE1 = 'Default executable for \telemac{3d}.'

NOM = 'EXECUTABLE PARALLELE PAR DEFAUT'
NOM1 = 'DEFAULT PARALLEL EXECUTABLE'
TYPE = CARACTERE
INDEX = 82
MNEMO = 'EXEDEFPARA'
TAILLE = 1
DEFAUT  = 'builds|PPP|bin|telemac3dMMMVVV.exe'
DEFAUT1 = 'builds|PPP|bin|telemac3dMMMVVV.exe'
RUBRIQUE = 'ENTREES-SORTIES, GENERALITES';'CALCUL'
RUBRIQUE1 = 'INPUT-OUTPUT, INFORMATION';'COMPUTATIONAL INFORMATION'
NIVEAU = 1
AIDE  = 'Executable parallele par defaut de \telemac{3d}.'
AIDE1 = 'Default parallel executable for \telemac{3d}.'
/
