TITLE = 'TELEMAC 3D: tide'
/--------------------------------------------------
/     GENERAL OPTIONS
/--------------------------------------------------
FORTRAN FILE                       : t3d_tide-jmj_gen.f
BOUNDARY CONDITIONS FILE           : geo_tide.cli
GEOMETRY FILE                      : geo_tide.slf
ASCII DATABASE FOR TIDE            : bdd_tide-jmj.txt
TIDAL MODEL FILE                   : tid_tide-jmj.slf
HARMONIC CONSTANTS FILE            : har_tide-jmj.txt
3D RESULT FILE                     : t3d_tide-jmj_type_gen.slf
2D RESULT FILE                     : t2d_tide-jmj_type_gen.slf
VALIDATION                         : YES
REFERENCE FILE                     : r3d_tide-jmj_type_gen.slf
/
/COMPUTATION CONTINUED                           : NO
/PREVIOUS COMPUTATION FILE : ?
/--------------------------------------------------
VARIABLES FOR 2D GRAPHIC PRINTOUTS              : U,V,S,H,M
VARIABLES FOR 3D GRAPHIC PRINTOUTS              : Z,U,V,W
TIME STEP                                       : 20.
NUMBER OF TIME STEPS                            : 4500
GRAPHIC PRINTOUT PERIOD                         : 45
LISTING PRINTOUT PERIOD                         : 450
/INFORMATION ABOUT MASS-BALANCE FOR EACH LISTING PRINTOUT : YES
MASS-BALANCE                                    : YES
/--------------------------------------------------
INITIAL CONDITIONS                              : 'CONSTANT ELEVATION'
INITIAL ELEVATION                               : 9.8
/MINIMAL VALUE FOR DEPTH : 0.01
/--------------------------------------------------
NUMBER OF HORIZONTAL LEVELS                     : 11
MESH TRANSFORMATION                             : 1
/NUMBER OF BOTTOM SMOOTHINGS                     : 6
TIDAL FLATS                                     : YES
OPTION FOR THE TREATMENT OF TIDAL FLATS         : 1
/ TO HAVE POSITIVE DEPTHS EVERYWHERE
TREATMENT OF NEGATIVE DEPTHS                    : 2
OPTION FOR LIQUID BOUNDARIES                    : 2
/--------------------------------------------------
/                       TIDE CONDITIONS
/--------------------------------------------------
OPTION FOR TIDAL BOUNDARY CONDITIONS            : 3
TIDAL DATA BASE                                 : 1
COEFFICIENT TO CALIBRATE TIDAL RANGE            : 1.01
COEFFICIENT TO CALIBRATE SEA LEVEL              : 5.58
GEOGRAPHIC SYSTEM                               : 4
ZONE NUMBER IN GEOGRAPHIC SYSTEM                : 1
/--------------------------------------------------
/    PROPAGATION
/--------------------------------------------------
PROPAGATION STEP                                : YES
/--------------------------------------------------
/     SOURCE TERMS
/--------------------------------------------------
NUMBER OF BOTTOM SMOOTHINGS                     : 2
LAW OF BOTTOM FRICTION                          : 3
FRICTION COEFFICIENT FOR THE BOTTOM             : 25.
VERTICAL TURBULENCE MODEL                       : 2
MIXING LENGTH MODEL                             : 3
HORIZONTAL TURBULENCE MODEL                     : 1
COEFFICIENT FOR HORIZONTAL DIFFUSION OF VELOCITIES : 1.E-4
CORIOLIS                                        : YES
CORIOLIS COEFFICIENT                            : 1.10E-4
/--------------------------------------------------
/	ADVECTION-DIFFUSION
/--------------------------------------------------
SCHEME FOR ADVECTION OF VELOCITIES              : 1
SCHEME FOR ADVECTION OF DEPTH                   : 5
SUPG OPTION                                     : 0;0
NON-HYDROSTATIC VERSION                         : YES
MATRIX STORAGE                                  : 3
FREE SURFACE GRADIENT COMPATIBILITY             : 0.9
TREATMENT OF FLUXES AT THE BOUNDARIES           : 1;1
/
ACCURACY FOR DIFFUSION OF VELOCITIES            : 1.E-6
MAXIMUM NUMBER OF ITERATIONS FOR DIFFUSION OF VELOCITIES : 500
PRECONDITIONING FOR DIFFUSION OF VELOCITIES     : 34 
/
/---------------------------------------------------------------------/
/     PROPAGATION                                                     /
/---------------------------------------------------------------------/
/
ACCURACY FOR PROPAGATION                            : 1.E-6
MAXIMUM NUMBER OF ITERATIONS FOR PROPAGATION        : 500 
PRECONDITIONING FOR PROPAGATION                     : 2
SOLVER FOR PROPAGATION                              : 2
INITIAL GUESS FOR DEPTH                             : 1
MAXIMUM NUMBER OF ITERATIONS FOR PPE                : 500
ACCURACY FOR PPE                                    : 1.E-6
PRECONDITIONING FOR PPE                             : 17
IMPLICITATION FOR DEPTH                             : 1.
IMPLICITATION FOR VELOCITIES                        : 1.
IMPLICITATION FOR DIFFUSION                         : 1.
/
OPTION FOR THE HYDROSTATIC STEP                     : 2
MASS-LUMPING FOR DEPTH                              : 1.
MASS-LUMPING FOR VELOCITIES                         : 1.
MASS-LUMPING FOR DIFFUSION                          : 1.
VELOCITY PROFILES                                   : 1;1
/
PARALLEL PROCESSORS                                 : 0
/&ETA
&FIN
