/
/ DOES NOT CHANGE THE RESULT
/ HYDROSTATIC INCONSISTENCY FILTER : YES
/
MATRIX STORAGE : 3
/
/---------------------------------------------
/ Lock exchange case NON HYDROSTAT
/---------------------------------------------
/
/ 101 s   HP C3700      JMH  17/12/2004
/  92 s   HP C3700      JMH  04/03/2005 (nouvelle diffusion)
/  55 s   HP C3700 5.6  JMH  29/09/2005 (segments, Dell:36 s)
/  55 s   HP C3700 5.7  JMH  13/02/2007 (Dell:35 s, Nag:140 s)
/  55 s   HP C3700 5.8  JMH  26/12/2007 (Dell:38 s, Nag:141 s)
/  69 s ? HP C3700 5.9  JMH  20/10/2008 (Dell:36 s, Nag:??? s)
/               
/
FORTRAN FILE             : t3d_lock-nonhydro.f
GEOMETRY FILE            : geo_lock-nonhydro.slf
BOUNDARY CONDITIONS FILE : geo_lock-nonhydro.cli
3D RESULT FILE           : r3d_lock-nonhydro.slf
2D RESULT FILE           : r2d_lock-nonhydro.slf
REFERENCE FILE           : f3d_lock-nonhydro.slf    VALIDATION : YES
/
NUMBER OF TIME STEPS = 100
TIME STEP = 1.
GRAPHIC PRINTOUT PERIOD = 50
LISTING PRINTOUT PERIOD = 10
NUMBER OF HORIZONTAL LEVELS = 12
NUMBER OF TRACERS = 1
/ 
SCHEME FOR ADVECTION OF VELOCITIES = 1
SCHEME FOR ADVECTION OF TRACERS = 5
SCHEME FOR ADVECTION OF DEPTH : 5
/
DENSITY FOR STANDARD VALUE = 999.972
/
LAW OF BOTTOM FRICTION= 0
FRICTION COEFFICIENT FOR THE BOTTOM = 0.
COEFFICIENT FOR HORIZONTAL DIFFUSION OF VELOCITIES = 0.0
COEFFICIENT FOR VERTICAL DIFFUSION OF VELOCITIES = 0.0
COEFFICIENT FOR HORIZONTAL DIFFUSION OF TRACERS = 0.0
COEFFICIENT FOR VERTICAL DIFFUSION OF TRACERS = 0.0
MASS-LUMPING FOR DIFFUSION : 1.
/
TITLE = 'Non hydrostatic Lock Exchange'
VARIABLES FOR 2D GRAPHIC PRINTOUTS = S,U,V
VARIABLES FOR 3D GRAPHIC PRINTOUTS = Z,U,V,W,TA1
/
COMPUTATION CONTINUED : NO
MASS-BALANCE : YES
/
MAXIMUM NUMBER OF ITERATIONS FOR PPE = 200
ACCURACY FOR PPE = 1.E-5
TIDAL FLATS : NO
NON-HYDROSTATIC VERSION : YES
CONSISTENT PROJECTION : NO
ACCURACY FOR PROPAGATION : 1.E-4
SOLVER FOR PROPAGATION : 7
DENSITY LAW : 2
NAMES OF TRACERS : 'SALINITY        G/L             '
INITIAL VALUES OF TRACERS : 0.
/
/  FIRST INTEGER : systeme tronque ou complet
/ SECOND INTEGER : equations primitives ou equation d'onde 
 TELEMAC-2D OPTIONS : 2;2    SOLVER FOR PROPAGATION : 1
/
&ETA
