/
/--------------------------------------------------------------------- 
/ TELEMAC2D Version v6p2 13 juin 2012 
/ TELEMAC 2D : TEST PONT 
/--------------------------------------------------------------------- 
/
/ Version 6.3: new parameters
/
/ HP Z600 Linux compilateur Intel :  340 s  30/05/2013 (8 processors)
/
/---------------------------------------------------------------------
/
FICHIER DES RESULTATS              ='r2d_bridge.slf'
FICHIER DES CONDITIONS AUX LIMITES ='geo_bridge.cli'
FICHIER DES FRONTIERES LIQUIDES    ='t2d_bridge.liq'
FICHIER DE GEOMETRIE               ='geo_bridge.slf'
/
/ BUSES
/
FICHIER DE DONNEES DES BUSES       ='fo1_bridge.txt' 
NOMBRE DE BUSES                   =  2
TYPE DES SOURCES : 1  
/ 
/------------------------------------------------------------------- 
/                     OPTIONS GENERALES                                
/-------------------------------------------------------------------
/ 
TITRE ='TELEMAC 2D : TEST PONT'
/   
/--------------------------------------------------------------------- 
/ ENTREES-SORTIES, GRAPHIQUES ET LISTING 
/--------------------------------------------------------------------- 
/ 
PAS DE TEMPS                          = 0.2  
NOMBRE DE PAS DE TEMPS                =36000 
VARIABLES POUR LES SORTIES GRAPHIQUES =U,V,S,B,T1 
PERIODE POUR LES SORTIES GRAPHIQUES   =36000
PERIODE DE SORTIE LISTING             =1000
BILAN DE MASSE                        =VRAI  
/ 
NOMS DES TRACEURS  =    'Traceur1'  
/--------------------------------------------------------------------- 
/ EQUATIONS 
/--------------------------------------------------------------------- 
/ 
COEFFICIENT D'IMPLICITATION DES TRACEURS =1.  
COEFFICIENT DE FROTTEMENT                =20.  
COEFFICIENT DE DIFFUSION DES TRACEURS    =0.  
VALEURS INITIALES DES TRACEURS           =0  
COEFFICIENT DE DIFFUSION DES VITESSES    =1.0  
LOI DE FROTTEMENT SUR LE FOND            =3  
PRECISION POUR LA DIFFUSION DES TRACEURS =1.E-10
/ 
/--------------------------------------------------------------------- 
/ EQUATIONS, CONDITIONS INITIALES 
/--------------------------------------------------------------------- 
/ 
CONDITIONS INITIALES ='COTE CONSTANTE'  
COTE INITIALE        =7. 
/ 
/--------------------------------------------------------------------- 
/ EQUATIONS, CONDITIONS LIMITES 
/--------------------------------------------------------------------- 
/ 
DEBITS IMPOSES                      =0;0  
PROFILS DE VITESSE                  =1;4  
COTES IMPOSEES                      =7.;7.
OPTION POUR LES FRONTIERES LIQUIDES =1;1  
VALEURS IMPOSEES DES TRACEURS       =0.0;250.0 
/ 
/--------------------------------------------------------------------- 
/ EQUATIONS, TRACEUR 
/--------------------------------------------------------------------- 
/ 
NOMBRE DE TRACEURS =1  
/ 
/--------------------------------------------------------------------- 
/ PARAMETRES NUMERIQUES 
/--------------------------------------------------------------------- 
/ 
TRAITEMENT DES HAUTEURS NEGATIVES =2 
/  
CORRECTION DE CONTINUITE          =OUI 
TRAITEMENT DES FLUX AUX FRONTIERES : 2;2
/ 
FORME DE LA CONVECTION            =14;5;14;1 
OPTION DE SUPG                    = 2;0; 2;2 
BANCS DECOUVRANTS : OUI
OPTION DE TRAITEMENT DES BANCS DECOUVRANTS : 1
/ 
/--------------------------------------------------------------------- 
/ PARAMETRES NUMERIQUES, SOLVEUR 
/--------------------------------------------------------------------- 
/ 
SOLVEUR POUR LA DIFFUSION DES TRACEURS =1
OPTION DU SOLVEUR                      =5 
TRAITEMENT DU SYSTEME LINEAIRE : 2    SOLVEUR : 1
/SOLVEUR =7
PRECISION DU SOLVEUR                   =1.E-8 
/ 
/--------------------------------------------------------------------- 
/ PARAMETRES NUMERIQUES, VITESSE-CELERITE-HAUTEUR 
/--------------------------------------------------------------------- 
/ 
IMPLICITATION POUR LA HAUTEUR =1.
MASS-LUMPING SUR H            =1.  
IMPLICITATION POUR LA VITESSE =1.
/ 
&FIN
