/
/  SUITE DE CALCUL, EN PARALLELE, AVEC VALIDATION
/  ET FLUX A TRAVERS DES SECTIONS
/
/  41 s  sur HP C3700     5.5  22/11/2004
/  26 s sur DELL 2.8 GHz  5.6  23/11/2005 en scalaire
/
/  HP C3700 compilateur HP  33 s  5.7  17/04/2007
/  DELL 2.8 GHz             19 s  5.7  19/04/2007 en parallele
/
/  HP C3700 compilateur HP  39 s  5.8  13/11/2007 en parallele
/  DELL 2.8 GHz             17 s  5.8  19/12/2007 en parallele
/
/  HP C3700 compilateur HP  40 s  5.9  15/10/2008 en parallele
/  DELL 2.8 GHz             15 s  5.9  15/10/2008 en parallele
/
/  HP C3700 compilateur HP  34 s  6.0  23/11/2009 en parallele
/  DELL 2.8 GHz             15 s  6.0  24/11/2009 en parallele
/
/  Version 6.2
/
/  HP C3700 compilateur HP  38 s  04/05/2012 en scalaire
/
/**********************************************************************/
/                                                                      /
/           FICHIER DE DECLARATION DES MOTS CLES DU CODE               /
/                            TELEMAC                                   /
/                                                                      /
/**********************************************************************/
/
/--------------------------------------------------------------------
/              
FICHIER FORTRAN                    : t2d_clotilde.f
FICHIER DE DONNEES FORMATE 1       : t2d_clotilde.hq
FICHIER DES CONDITIONS AUX LIMITES : geo_clotilde.cli
FICHIER DE GEOMETRIE               : geo_clotilde.slf
FICHIER DU CALCUL PRECEDENT        : ini_clotilde.slf
FICHIER DES RESULTATS              : r2d_clotilde.slf
FICHIER DE REFERENCE               : f2d_clotilde.slf
VALIDATION : OUI
/----------------------------------------------------------------------/
/    
/     OPTIONS GENERALES
/----------------------------------------------------------------------/
/
TITRE = 'test des impressions sur les sections'
SUITE DE CALCUL = OUI
PAS DE TEMPS = 0.5
NOMBRE DE PAS DE TEMPS =  10
INFORMATIONS SUR LE SOLVEUR : OUI
VARIABLES POUR LES SORTIES GRAPHIQUES : 'U,V,H,S,B,F,W'
PERIODE DE SORTIE LISTING = 1
PERIODE POUR LES SORTIES GRAPHIQUES = 10
BILAN DE MASSE : OUI
/
/
CONDITIONS INITIALES : 'COTE NULLE'
/
COTES IMPOSEES =  38.13;0;0;57.58;0;0;59.94
DEBITS IMPOSES = 1000;10000;10;-1500;1500;8500;-8500
/aval;amont;ardeche;amont_usine;aval_usine;aval_barrage;amont_barrage
/
OPTION DE TRAITEMENT DES BANCS DECOUVRANTS = 1
BANCS DECOUVRANTS = OUI
LOI DE FROTTEMENT SUR LE FOND = 3
COEFFICIENT DE FROTTEMENT = 35.
MODELE DE TURBULENCE = 1
COEFFICIENT DE DIFFUSION DES VITESSES = 0.1
/
DISCRETISATIONS EN ESPACE : 12;11
MASS-LUMPING SUR H : 1.
IMPLICITATION POUR LA HAUTEUR : 0.55
IMPLICITATION POUR LA VITESSE : 0.55
FORME DE LA CONVECTION : 1;5
OPTION DE SUPG         : 2;2
LISSAGES DU FOND = 0
MAXIMUM D'ITERATIONS POUR LE SOLVEUR = 100
PRECISION DU SOLVEUR = 1.E-6
SOLVEUR : 7   OPTION DU SOLVEUR : 3
CLIPPING DE H         : NON
/
////////////////////////////////////////////////////////////////////////
SECTIONS DE CONTROLE = 23411;8831;
23411;45656;45656;9648;9648;45898;45898;15699;
15699;45416;45416;33954;33954;45490;45490;18645;18645;45677;45677;13498;
13498;45723;45723;15930;15930;45786;45786;22543;22543;45800;45800;34465;
34465;45864;45864;42187;42187;45538;45538;8831
/amont barrage de Donzere : 20 sections
/
 PROCESSEURS PARALLELES = 0
/
&FIN
