/ 26/02/2010
/
/ CV: ICQ et ICR reprise des mêmes mots cles pour SISYPHE que pour TELEMAC3D
/ Seule la valeur par defaut de ICR es tdifférente
/ SISYPHE : ICR=1: KSP=KSPRATIO *D50
/TEL3D      ICR=0: TAUP=TOB
/ ICR: CORRECTION FROTTEMENT DE PEAU
/ ICQ: FORMULE POUR LA CONCENTRATION DE REFERENCE
/la formule 3: utiliser seulement si frottement de Nikuradse (KFROT=5)
/
&DYN
/
/---SYSTEME-TELEMAC-V6P1------------------------------TELEMAC-3D-------------
/
/Signification des differents mode d'acquisition/restitution
/des fichiers vis a vis du parallelisme :
/
/  - "SCAL" :	
/     Même fichier pour tous les processeurs lu par tous.	
/     Seule la version du maître est consideree apres calcul.
/
/  - "SELAFIN" :	
/     Le fichier est "decompose/regroupe en sous-domaines" avec les outils
/      "partel/gretel" (dans le mode par defaut "parallelisme automatique")	
/     Chaque processeur dispose d'un fichier prive.
/  - "SELAFIN-GEOM" :
/     idem SELAFIN mais pour le fichier de geometrie ='FICHIER DE GEOMETRIE'
/      (usage par le regoupeur GRETEL en parallelisme)
/
/  - "PARAL" :	
/     Le fichier est duplique avant calcul ("LIT") pour chaque processeur
/      (avec une extension numerique), sauf s'il pre-existe avec cette  
/      extension numerique : il est alors utilise (copie).	
/     En mode "non automatique" : les fichiers lus doivent pre-exister avec 
/      leur extension numerique.	
/     S'il s'agit d'un fichier resultat ("ECR"), le fichier est restitue
/      avec son extension numerique (fichier specifique a chaque processeur).	
/
/  - "CONLIM" :	
/     Cette valeur designe le fichier des "conditions aux limites"	
/     (utilise par le decoupeur "partel").
/
/---SYSTEME-TELEMAC-V6P1------------------------DeltaCAD-/-Septembre-2003----
/
NOM = 'NOMBRE DE PAS DE TEMPS'
NOM1 = 'NUMBER OF TIME STEPS'
TYPE = ENTIER
INDEX = 1
MNEMO = 'NIT'
TAILLE = 0
DEFAUT = 1
DEFAUT1 = 1
RUBRIQUE = 'PARAMETRES NUMERIQUES';'DUREE DU CALCUL'
RUBRIQUE1 = 'NUMERIC PARAMETERS';'DURATION'
NIVEAU = 1
COMPORT = 
'Foreground ("PARAMETRES NUMERIQUES*DUREE DU CALCUL")
IS BRUT (blue)'
AIDE = 'Définit le nombre de pas de temps effectués lors de
l''exécution du code.'
AIDE1 = 'Specifies the number of time steps performed when running
the code.'

NOM = 'NOMBRE DE PLANS HORIZONTAUX'
NOM1 = 'NUMBER OF HORIZONTAL LEVELS'
TYPE = ENTIER
INDEX = 2
MNEMO = ''
TAILLE = 0
DEFAUT = 2
DEFAUT1 = 2
RUBRIQUE = 'PARAMETRES NUMERIQUES';'GENERAL'
RUBRIQUE1 = 'NUMERIC PARAMETERS';'GENERAL'
NIVEAU = 1
COMPORT=
'Foreground ("PARAMETRES NUMERIQUES*GENERAL")
IS BRUT (blue)'
AIDE = 'Définit le nombre de plans du maillage entre fond et
surface. Vaut au moins 2.'
AIDE1 = 'Gives the number of planes from bottom to free surface. Must
be at least 2'

NOM = 'NOMBRE DE TRACEURS'
NOM1 = 'NUMBER OF TRACERS'
TYPE = ENTIER
INDEX = 3
MNEMO = ''
TAILLE = 0
DEFAUT = 0
DEFAUT1 = 0
RUBRIQUE = 'EQUATIONS, TRACEUR'
RUBRIQUE1 = 'EQUATIONS';'TRACER'
NIVEAU = 1
COMPORT = 
'Foreground ("EQUATIONS, TRACEUR")
IS BRUT (brown)'
AIDE = 'Définit le nombre de traceurs.'
AIDE1 = 'Defines the number of tracers'

NOM = 'MODELE DE LONGUEUR DE MELANGE'
NOM1 = 'MIXING LENGTH MODEL'
TYPE = ENTIER
INDEX = 4
MNEMO = 'MIXING'
TAILLE = 0
DEFAUT = 1
DEFAUT1 = 1
RUBRIQUE = ''
RUBRIQUE1 = ''
NIVEAU = 1
AIDE = '1: PRANDTL  3: NEZU ET NAKAGAWA  
                               4: JET   5: QUETIN   6: TSANIS'
AIDE1 = '1: PRANDTL  3: NEZU AND NAKAGAWA  
                               4: JET   5: QUETIN   6: TSANIS'

NOM = 'NOMBRE DE FLOTTEURS'
NOM1 = 'NUMBER OF DROGUES'
TYPE = ENTIER
INDEX = 5
MNEMO = 'NFLOT'
CONTROLE = 0 ; 10
TAILLE = 0
DEFAUT = 0
DEFAUT1 = 0
RUBRIQUE = 'ENTREES-SORTIES, GRAPHIQUES ET LISTING'
RUBRIQUE1 = 'INPUT-OUTPUT, GRAPHICS AND LISTING'
NIVEAU = 2
AIDE = 'Permet d''effectuer un suivi de flotteurs'
AIDE1 = 'Number of drogues in the computation.
The user must then fill the subroutine FLOT specifying
the coordinates of the starting points, their departure
and arrival times.
The trajectory of drogues is recorded in the BINARY RESULTS
FILE that must be given in the steering file'

NOM = 'PERIODE POUR LES SORTIES DE FLOTTEURS'
NOM1 = 'PRINTOUT PERIOD FOR DROGUES'
TYPE = ENTIER
INDEX = 6
MNEMO = 'FLOPRD'
CONTROLE = 1 ; 100
TAILLE = 0
DEFAUT = 1
DEFAUT1 = 1
RUBRIQUE = 'ENTREES-SORTIES, GRAPHIQUES ET LISTING'
RUBRIQUE1 = 'INPUT-OUTPUT, GRAPHICS AND LISTING'
NIVEAU = 2
AIDE = 'Nombre de pas de temps entre 2 sorties de positions de
flotteurs dans le fichier des resultats binaire supplementaire
N affecte pas la qualite du calcul de la trajectoire'
AIDE1 = 'Number of time steps between 2 outputs of drogues
positions in the binary file'

NOM = 'PERIODE POUR LES SORTIES GRAPHIQUES'
NOM1 = 'GRAPHIC PRINTOUT PERIOD'
TYPE = ENTIER
INDEX = 7
MNEMO = 'exemple de chaine avec une cote en colonne 72                '
TAILLE = 0
DEFAUT = 1
DEFAUT1 = 1
RUBRIQUE = 'ENTREES-SORTIES, GRAPHIQUES ET LISTING'
RUBRIQUE1 = 'INPUT-OUTPUT, GRAPHICS AND LISTING'
NIVEAU = 1
COMPORT =
'Foreground ("ENTREES-SORTIES, GRAPHIQUES ET LISTING")
IS BRUT (red)'
AIDE = 'Détermine la période en nombre de pas de temps d''impression
des ''VARIABLES POUR LES SORTIE GRAPHIQUES'' (voir ce mot-clé)
dans le FICHIER DES RESULTATS.'
AIDE1 = 'Determines, in number of time steps, the printout period for
the VARIABLES FOR GRAPHIC PRINTOUTS in the RESULTS FILE.'

NOM = 'PERIODE POUR LES SORTIES LISTING'
NOM1 = 'LISTING PRINTOUT PERIOD'
TYPE = ENTIER
INDEX = 8
MNEMO = ''
TAILLE = 0
DEFAUT = 1
DEFAUT1 = 1
RUBRIQUE = 'ENTREES-SORTIES, GRAPHIQUES ET LISTING'
RUBRIQUE1 = 'INPUT-OUTPUT, GRAPHICS AND LISTING'
NIVEAU = 1
AIDE = 'Determine la periode en nombre de pas de temps d''impression
des ''VARIABLES A IMPRIMER'' (voir ce mot-cle) Pour la mise au point;
il faut savoir que la sortie des resultats est effectuee
systematiquement sur le listing'
AIDE1 = 'Determines, in number of time steps, the printout period of
the VARIABLES TO BE PRINTED
The results are systematically printed out on the listing file
(file CAS.SORTIE at the workstation).'

NOM = 'NUMERO DU PREMIER PAS DE TEMPS POUR LES SORTIES GRAPHIQUES'
NOM1 = 'NUMBER OF FIRST TIME STEP FOR GRAPHIC PRINTOUTS'
TYPE = ENTIER
INDEX = 9
MNEMO = 'GRADEB'
TAILLE = 0
DEFAUT = 0
DEFAUT1 = 0
RUBRIQUE = 'ENTREES-SORTIES, GRAPHIQUES ET LISTING'
RUBRIQUE1 = 'INPUT-OUTPUT, GRAPHICS AND LISTING'
NIVEAU = 1
AIDE = 'Détermine le nombre de pas de temps à partir duquel débute
l''écriture des résultats dans le ''FICHIER DES RESULTATS''.'
AIDE1 = 'Determines the number of time steps after which the results
are first written into the RESULTS FILE.'

NOM = 'NUMERO DU PREMIER PAS DE TEMPS POUR LES SORTIES LISTING'
NOM1 = 'NUMBER OF FIRST TIME STEP FOR LISTING PRINTOUTS'
TYPE = ENTIER
INDEX = 10
MNEMO = 'LISDEB'
TAILLE = 0
DEFAUT = 0
DEFAUT1 = 0
RUBRIQUE = 'ENTREES-SORTIES, GRAPHIQUES ET LISTING'
RUBRIQUE1 = 'INPUT-OUTPUT, GRAPHICS AND LISTING'
NIVEAU = 1
AIDE = 'Determine le nombre de pas de temps a partir duquel debute
l''ecriture des resultats dans le listing.'
AIDE1 = 'Determines the number of time steps after which the results
are first written into the listing.'

NOM = 'NOMBRE DE LISSAGES DU FOND'
NOM1 = 'NUMBER OF BOTTOM SMOOTHINGS'
TYPE = ENTIER
INDEX = 11
MNEMO = 'LISS_FOND'
CONTROLE = 0 ; 100
TAILLE = 0
DEFAUT = 0
DEFAUT1 = 0
RUBRIQUE = 'EQUATIONS';'LISSAGE'
RUBRIQUE1 = 'EQUATIONS';'SMOOTHINGS'
NIVEAU = 1
COMPORT =
'Foreground ("EQUATIONS*LISSAGE")
IS BRUT (brown)'
AIDE = 'Nombre de lissages effectues sur la topographie.
chaque lissage, effectué à l''aide d''une matrice de masse,
est conservatif.
Utilisé lorsque les données de bathymétrie donnent des résultats
trop irréguliers après interpolation.'
AIDE1 ='Number of smoothings on bottom topography.
each smoothing is mass conservative.
to be used when interpolation of bathymetry on the mesh gives
very rough results.'

NOM = 'NOMBRE DE SOUS ITERATIONS POUR LES NON LINEARITES'
NOM1 = 'NUMBER OF SUB ITERATIONS FOR NON LINEARITIES'
TYPE = ENTIER
INDEX = 12
MNEMO = 'NSOUSI'
TAILLE = 0
DEFAUT = 1
DEFAUT1 = 1
RUBRIQUE = 'PARAMETRES NUMERIQUES';'GENERAL'
RUBRIQUE1 = 'NUMERICAL PARAMETERS';'GENERAL'
NIVEAU = 1
AIDE = 'Permet de réactualiser, pour un meme pas de temps, les champs
convecteur et propagateur au cours de plusieurs sous-itérations. A la
première sous-itération, ces champs sont donnés par C et le champ de
vitesses au pas de temps précédent. Aux itérations suivantes, ils sont
pris égaux au champ de vitesse obtenu à la fin de la sous-itération
précédente. Cette technique permet d''améliorer la prise en compte des
non linéarités.'
AIDE1 = 'Used for updating, within one time step, the advection and
propagation field.
upon the first sub-iteration, these fields are given by
C and the velocity field in the previous time step. At subsequent
iterations, the results of the previous sub-iteration is used to
update the advection and propagation field.
The non-linearities can be taken into account through this technique.'

NOM = 'NUMERO DU PLAN DE REFERENCE INTERMEDIAIRE'
NOM1 = 'NUMBER OF THE INTERMEDIATE REFERENCE LEVEL'
TYPE = ENTIER
INDEX = 13
MNEMO = 'PLAN_REF'
TAILLE = 0
DEFAUT = 1
DEFAUT1 = 1
RUBRIQUE = 'PARAMETRES NUMERIQUES';'GENERAL'
RUBRIQUE1 = 'NUMERICAL PARAMETERS';'GENERAL'
NIVEAU = 1
AIDE = 'Permet lorsque cet entier est strictement compris
entre 1 et NPLAN
de scinder suivant Z le domaine en 2
impliquant 2 transformations sigma.'
AIDE1 = ''

NOM = 'MODELE DE TURBULENCE VERTICAL'
NOM1 = 'VERTICAL TURBULENCE MODEL'
TYPE = ENTIER
INDEX = 14
MNEMO = 'ITURBV'
TAILLE = 0
DEFAUT = 1
DEFAUT1 = 1
CHOIX = '1="VISCOSITE CONSTANTE"';
        '2="LONGUEUR DE MELANGE"';
        '3="MODELE K-EPSILON"';
        '4="SMAGORINSKI"';
        '5= ';
        '6= ';
        '7="MODELE K-OMEGA" '
CHOIX1 = '1="CONSTANT VISCOSITY"';
         '2="MIXING LENGTH"';
         '3="K-EPSILON MODEL"';
         '4="SMAGORINSKI"';
         '5= ';
         '6= ';
         '7="K-OMEGA MODEL" '
CONTROLE = 1 ; 7
RUBRIQUE = 'EQUATIONS';'MODELE DE TURBULENCE'
RUBRIQUE1 = 'EQUATIONS';'TURBULENCE MODEL'
NIVEAU = 1
AIDE = '5 choix sont possibles actuellement.
Attention : si on choisit l''option 1;
il ne faut pas oublier d''ajuster la valeur du mot-clé COEFFICIENT DE
DIFFUSION DES ....
Si on choisit l''option 3 ou 7;
ce meme parametre doit retrouver sa vraie valeur physique, en general
environ 1.E-6 car elle est utilisee comme telle dans le modele de
turbulence'
AIDE1 = 'Five choices available.
Beware : if option 1 chosen, give the right 
COEFFICIENT FOR HORIZONTAL DIFFUSION OF VELOCITIES
DIFFUSION DES ....
If option 3 ou 7 is chosen, this parameter must get its real physical
value of molecular diffusivity, generally about 1.E-6.'

NOM = 'REGIME DE TURBULENCE POUR LE FOND'
NOM1 = 'TURBULENCE MODEL FOR THE BOTTOM'
TYPE = ENTIER
INDEX = 15
MNEMO = 'LISRUF'
TAILLE = 0
DEFAUT = 2
DEFAUT1 = 2
CHOIX = '1= lisse ';
        '2= rugueux'
CHOIX1 = '1= smooth';
         '2= rough'
CONTROLE = 1 ; 3
RUBRIQUE = 'EQUATIONS';'MODELE DE TURBULENCE';'MODELE K-EPSILON'
RUBRIQUE1 = 'EQUATIONS';'TURBULENCE MODEL';'K-EPSILON MODEL'
NIVEAU = 1
COMPORT = 
'Foreground ("EQUATIONS*MODELE DE TURBULENCE*MODELE K-EPSILON")
IS BRUT (brown)'
AIDE = 'Permet de definir le regime de turbulence pour le fond dans le
cas du modele de longueur de melange ou du modele k-epsilon :
1 : lisse;
2 : rugueux 
3 : rugueux (compatibilite avec anciennes versions)'
AIDE1 = 'Defines the turbulence regime for the bottom in the case of a
k-epsilon or mixing-length model.
1 : smooth;
2 : rough 
3 : rough also (for compatibility with old versions)'

NOM = 'REGIME DE TURBULENCE POUR LES PAROIS LATERALES'
NOM1 = 'TURBULENCE MODEL FOR LATERAL SOLID BOUNDARIES'
TYPE = ENTIER
INDEX = 16
MNEMO = 'LISRUL'
TAILLE = 0
DEFAUT = 2
DEFAUT1 = 2
CHOIX = '1="lisse"';
        '2="rugueux"'
CHOIX1= '1="smooth"';
        '2="rough"'
CONTROLE = 1 ; 3
RUBRIQUE = 'EQUATIONS';'MODELE DE TURBULENCE';'MODELE K-EPSILON'
RUBRIQUE1 = 'EQUATIONS';'TURBULENCE MODEL';'K-EPSILON MODEL'
NIVEAU = 1
AIDE = 'Definit le regime de turbulence pour les parois laterales'
AIDE1 = 'Defines the turbulence regime for the lateral boundaries'

NOM = 'ORDRE DU TIR INITIAL POUR LA HAUTEUR'
NOM1 = 'INITIAL GUESS FOR DEPTH'
TYPE = ENTIER
INDEX = 17
MNEMO = 'IORDRH'
TAILLE = 0
DEFAUT = 1
DEFAUT1 = 1
CHOIX = '0=zero';
        '1=precedent';
        '2=extrapolation'
CHOIX1 = '0=zero';
         '1=previous';
         '2=extrapolation'
CONTROLE = 0 ; 2
RUBRIQUE = 'PARAMETRES NUMERIQUES, VITESSE-CELERITE-HAUTEUR'
RUBRIQUE1 = 'NUMERICAL PARAMETERS, VELOCITY-CELERITY-HIGHT'
NIVEAU = 1
COMPORT = 
'Foreground ("PARAMETRES NUMERIQUES, VITESSE-CELERITE-HAUTEUR")
IS BRUT (blue)'
AIDE = 'Tir initial du solveur de l''etape de propagation.
Offre la possibilite de modifier la valeur initiale de DH,
accroissement de H, a chaque iteration,
dans l''etape de propagation en utilisant les valeurs
finales de cette variable aux pas de temps precedents. Ceci peut
permettre d''accelerer la vitesse de convergence lors de la resolution
du systeme. Trois possibilites sont offertes :
 0 : DH = 0.
 1 : DH = DHn (valeur finale de DH au pas de temps precedent),
 2 : DH = 2DHn - DHn-1 (extrapolation).'
AIDE1 = 'Initial guess for the solver in the propagation step.
Makes it possible to modify the initial value of C, upon each
iteration in the propagation step, by using the ultimate values this
variable had in the earlier time steps. Thus, the convergence can be
speeded up when the system is being solved. 3 options are available:
 0: DH = 0
 1: DH = DHn (ultimate DH value in the next previous time step)
 2: DH = 2DHn - DHn-1 (extrapolation)'

NOM = 'SCHEMA POUR LA CONVECTION DES VITESSES'
NOM1 = 'SCHEME FOR ADVECTION OF VELOCITIES'
TYPE = ENTIER
INDEX = 18
MNEMO = 'SCHCVI'
TAILLE = 0
CHOIX = '0="PAS DE CONVECTION"';
        '1="CARACTERISTIQUES"';
        '2="EXPLICITE + SUPG"';
        '3="EXPLICITE LEO POSTMA"';
        '4="EXPLICITE + MURD SCHEMA N"';
        '5="EXPLICITE + MURD SCHEMA PSI"';
        '13="LEO POSTMA POUR BANCS DECOUVRANTS"';
        '14="SCHEMA N POUR BANCS DECOUVRANTS"'
CHOIX1 = '0="NO ADVECTION"';
         '1="CHARACTERISTICS"';
         '2="EXPLICIT + SUPG"';
         '3="EXPLICIT LEO POSTMA"';
         '4="EXPLICIT + MURD SCHEME N"';
         '5="EXPLICIT + MURD SCHEME PSI"';
         '13="LEOPOSTMA FOR TIDAL FLATS"';
         '14="N-SCHEME FOR TIDAL FLATS"'
CONTROLE = 0 ; 15
DEFAUT = 1
DEFAUT1 = 1
RUBRIQUE = 'EQUATIONS, CONVECTION';'GENERAL'
RUBRIQUE1 = 'EQUATIONS, ADVECTION';'GENERAL'
COMPORT = 
'Foreground ("EQUATIONS, CONVECTION*GENERAL")
IS BRUT (blue)'
NIVEAU = 1
AIDE = 'Choix du schema de convection pour les vitesses'
AIDE1 = 'Choice of the advection scheme for the veocities'

NOM = 'SCHEMA POUR LA CONVECTION DES TRACEURS'
NOM1 = 'SCHEME FOR ADVECTION OF TRACERS'
TYPE = ENTIER
INDEX = 19
MNEMO = 'SCHCTA'
TAILLE = 1
CHOIX = '0="PAS DE CONVECTION"';
        '1="CARACTERISTIQUES"';
        '2="EXPLICITE + SUPG"';
        '3="EXPLICITE LEO POSTMA"';
        '4="EXPLICITE + MURD SCHEMA N"';
        '5="EXPLICITE + MURD SCHEMA PSI"';
        '13="LEO POSTMA POUR BANCS DECOUVRANTS"';
        '14="SCHEMA N POUR BANCS DECOUVRANTS"'
CHOIX1 = '0="NO ADVECTION"';
         '1="CHARACTERISTICS"';
         '2="EXPLICIT + SUPG"';
         '3="EXPLICIT LEO POSTMA"';
         '4="EXPLICIT + MURD SCHEME N"';
         '5="EXPLICIT + MURD SCHEME PSI"';
         '13="LEOPOSTMA FOR TIDAL FLATS"';
         '14="N-SCHEME FOR TIDAL FLATS"'
CONTROLE = 0 ; 14
DEFAUT = 5
DEFAUT1 = 5
RUBRIQUE = 'EQUATIONS, CONVECTION';'GENERAL'
RUBRIQUE1 = 'EQUATIONS, ADVECTION';'GENERAL'
COMPORT = 
'Foreground ("EQUATIONS, CONVECTION*GENERAL")
IS BRUT (blue)'
NIVEAU = 1
AIDE = 'Choix du schema de convection pour les traceurs'
AIDE1 = 'Choice of the advection scheme for the tracers'

NOM = 'FONCTION D''AMORTISSEMENT'
NOM1 = 'DAMPING FUNCTION'
TYPE = ENTIER
INDEX = 20
MNEMO = 'DAMPING'
TAILLE = 0
CONTROLE = 0 
DEFAUT = 0
DEFAUT1 = 0
RUBRIQUE = ''
RUBRIQUE1 = ''
NIVEAU = 1
AIDE = '0: RIEN   1: FAIT PAR L''UTILISATEUR  
 2: VIOLLET  3: MUNK ET ANDERSON'
AIDE1 = '0: NOTHING   1: USER PROGRAMMED  
 2: VIOLLET     3:  MUNK AND ANDERSON'

NOM = 'SCHEMA POUR LA CONVECTION DU K-EPSILON'
NOM1 = 'SCHEME FOR ADVECTION OF K-EPSILON'
TYPE = ENTIER
INDEX = 21
MNEMO = 'SCHCKE'
TAILLE = 0
CHOIX = '0="PAS DE CONVECTION"';
        '1="CARACTERISTIQUES"';
        '2="EXPLICITE + SUPG"';
        '3="EXPLICITE LEO POSTMA"';
        '4="EXPLICITE + MURD SCHEMA N"';
        '5="EXPLICITE + MURD SCHEMA PSI"';
        '13="LEO POSTMA POUR BANCS DECOUVRANTS"';
        '14="SCHEMA N POUR BANCS DECOUVRANTS"'
CHOIX1 = '0="NO ADVECTION"';
         '1="CHARACTERISTICS"';
         '2="EXPLICIT + SUPG"';
         '3="EXPLICIT LEO POSTMA"';
         '4="EXPLICIT + MURD SCHEME N"';
         '5="EXPLICIT + MURD SCHEME PSI"';
         '13="LEOPOSTMA FOR TIDAL FLATS"';
         '14="N-SCHEME FOR TIDAL FLATS"'
CONTROLE = 0 ; 5
DEFAUT = 1
DEFAUT1 = 1
RUBRIQUE = 'EQUATIONS, CONVECTION';'GENERAL'
RUBRIQUE1 = 'EQUATIONS, ADVECTION';'GENERAL'
COMPORT = 
'Foreground ("EQUATIONS, CONVECTION*GENERAL")
IS BRUT (blue)'
NIVEAU = 1
AIDE = 'Choix du schema de convection pour k et epsilon'
AIDE1 = 'Choice of the advection scheme for k and epsilon'

NOM = 'SCHEMA POUR LA CONVECTION DE LA HAUTEUR'
NOM1 = 'SCHEME FOR ADVECTION OF DEPTH'
TYPE = ENTIER
INDEX = 22
MNEMO = 'SCHCH'
TAILLE = 0
CHOIX = '5="CONSERVATIF"'
CHOIX1 = '5="CONSERVATIVE"'
CONTROLE = 5 ; 5
DEFAUT = 5
DEFAUT1 = 5
RUBRIQUE = 'EQUATIONS, CONVECTION';'GENERAL'
RUBRIQUE1 = 'EQUATIONS, ADVECTION';'GENERAL'
COMPORT = 
'Foreground ("EQUATIONS, CONVECTION*GENERAL")
IS BRUT (blue)'
NIVEAU = 1
AIDE = 'Desormais fixe a 5'
AIDE1 = 'Now 5 is mandatory'

NOM = 'SCHEMA POUR LA DIFFUSION DES VITESSES'
NOM1 = 'SCHEME FOR DIFFUSION OF VELOCITIES'
TYPE = ENTIER
INDEX = 23
MNEMO = ''
TAILLE = 0
CHOIX = '0="PAS DE DIFFUSION"';
        '1="IMPLICITE"'
CHOIX1 = '0="NO DIFFUSION"';
         '1="IMPLICIT"'
CONTROLE = 0 ; 1
DEFAUT = 1
DEFAUT1 = 1
RUBRIQUE = 'EQUATIONS, DIFFUSION';'GENERAL'
RUBRIQUE1 = 'EQUATIONS, DIFFUSION';'GENERAL'
COMPORT = 
'Foreground ("EQUATIONS, DIFFUSION*GENERAL")
IS BRUT (blue)'
NIVEAU = 1
AIDE = 'Prise en compte ou non de la diffusion des vitesses
avec option sur le schema.'
AIDE1 = 'Monitors the choice of the diffusion scheme 
for velocities'

NOM = 'SCHEMA POUR LA DIFFUSION DES TRACEURS'
NOM1 = 'SCHEME FOR DIFFUSION OF TRACERS'
TYPE = ENTIER
INDEX = 24
MNEMO = 'SCHDTA'
TAILLE = 0
CHOIX = '0="PAS DE DIFFUSION"';
        '1="IMPLICITE"'
CHOIX1 = '0="NO DIFFUSION"';
         '1="IMPLICIT"'
CONTROLE = 0 ; 1
DEFAUT = 1
DEFAUT1 = 1
RUBRIQUE = 'EQUATIONS, DIFFUSION';'GENERAL'
RUBRIQUE1 = 'EQUATIONS, DIFFUSION';'GENERAL'
COMPORT = 
'Foreground ("EQUATIONS, DIFFUSION*GENERAL")
IS BRUT (blue)'
NIVEAU = 1
AIDE = 'Prise en compte ou non de la diffusion des traceurs
avec option sur le schema.'
AIDE1 = 'Monitors the choice of the diffusion scheme 
for tracers'

NOM = 'LOI DE FROTTEMENT SUR LES PAROIS LATERALES'
NOM1 = 'LAW OF FRICTION ON LATERAL BOUNDARIES'
TYPE = ENTIER
INDEX = 25
MNEMO = 'KFROTL'
TAILLE = 0
DEFAUT = 0
DEFAUT1 = 0
CHOIX = '0="PAS DE FROTTEMENT"';
'1="COEFFICIENT PRIS DANS LE FICHIER DES CONDITIONS AUX LIMITES"';
'2="IDEM"';
'3="IDEM"';
'4="IDEM"';
'5="NIKURADSE"'
CHOIX1 = '0="NO FRICTION"';
'1="COEFFICIENT TAKEN IN BOUNDARY CONDITIONS FILE"';
'2="IDEM"';
'3="IDEM"';
'4="IDEM"';
'5="NIKURADSE"'
RUBRIQUE = 'EQUATIONS';'FROTTEMENT'
RUBRIQUE1 = 'EQUATIONS';'FRICTION'
AIDE = 'selectionne le type de formulation utilisee pour le calcul
du frottement sur les parois laterales.
Les lois possibles sont les suivantes (cf. Note de principe) :  
0 : pas de frottement , ou AUBOR donne par le fichier des conditions aux limites
1 :  
2 :  
3 :  
4 :  
5 : formule de NIKURADSE '
AIDE1 = 'Selects the type of formulation used for the friction on lateral boundaries.
The possible laws are as follows (refer to the Principle note):
0: no friction, or AUBOR given by the boundary conditions file ,
1:  
2:  
3:  
4:  
5: NIKURADSE''s formula '

NOM = 'SCHEMA POUR LA DIFFUSION DU K-EPSILON'
NOM1 = 'SCHEME FOR DIFFUSION OF K-EPSILON'
TYPE = ENTIER
INDEX = 26
MNEMO = ''
TAILLE = 0
CHOIX = '0="PAS DE DIFFUSION"';
        '1="IMPLICITE"'
CHOIX1 = '0="NO DIFFUSION"';
         '1="IMPLICIT"'
CONTROLE = 0 ; 1
DEFAUT = 1
DEFAUT1 = 1
RUBRIQUE = 'EQUATIONS, DIFFUSION';'GENERAL'
RUBRIQUE1 = 'EQUATIONS, DIFFUSION';'GENERAL'
COMPORT = 
'Foreground ("EQUATIONS, DIFFUSION*GENERAL")
IS BRUT (blue)'
NIVEAU = 1
AIDE = 'Prise en compte ou non de la diffusion de k et epsilon
avec option sur le schema.'
AIDE1 = 'Monitors the choice of the diffusion scheme 
for k and epsilon'

NOM = 'PRECONDITIONNEMENT POUR LA DIFFUSION DES VITESSES'
NOM1 = 'PRECONDITIONING FOR DIFFUSION OF VELOCITIES'
TYPE = ENTIER
INDEX = 27
MNEMO = ''
TAILLE = 0
DEFAUT = 2
DEFAUT1 = 2
CHOIX = '0="AUCUN"';
        '2="DIAGONAL"';
        '3="DIAGONAL CONDENSEE"';
        '7="CROUT"';
        '14="DIAGONAL ET CROUT"';
        '17="SOLVEUR DIRECT SUR LA VERTICALE"';
        '21="DIAGONAL CONDENSE ET CROUT"'
CHOIX1 = '0="no preconditioning"';
         '2="diagonal"';
         '3="diagonal condensed"';
         '7="crout"';
         '14="diagonal and crout"';
         '17="direct solver on the vertical"';
         '21="diagonal condensed and crout"'
RUBRIQUE = 'EQUATIONS, DIFFUSION';'GENERAL'
RUBRIQUE1 = 'EQUATIONS, DIFFUSION';'GENERAL'
NIVEAU = 1
COMPORT = 
'Foreground ("EQUATIONS, DIFFUSION*GENERAL")
IS BRUT (brown)'
AIDE = 'Permet de préconditionner le système relatif
a la diffusion des vitesses.'
AIDE1 = 'Choice of preconditioning for the diffusion of 
velocities'

NOM = 'PRECONDITIONNEMENT POUR LA DIFFUSION DES TRACEURS'
NOM1 = 'PRECONDITIONING FOR DIFFUSION OF TRACERS'
TYPE = ENTIER
INDEX = 28
MNEMO = 'SLVDTA(ITRAC)%PRECON'
TAILLE = 1
DEFAUT = 2
DEFAUT1 = 2
CHOIX = '0="AUCUN"';
        '2="DIAGONAL"';
        '3="DIAGONAL CONDENSEE"';
        '7="CROUT"';
        '14="DIAGONAL ET CROUT"';
        '17="SOLVEUR DIRECT SUR LA VERTICALE"';
        '21="DIAGONAL CONDENSE ET CROUT"'
CHOIX1 = '0="no preconditioning"';
         '2="diagonal"';
         '3="diagonal condensed"';
         '7="crout"';
         '14="diagonal and crout"';
         '17="direct solver on the vertical"';
         '21="diagonal condensed and crout"'
RUBRIQUE = 'EQUATIONS, DIFFUSION';'GENERAL'
RUBRIQUE1 = 'EQUATIONS, DIFFUSION';'GENERAL'
NIVEAU = 1
COMPORT = 
'Foreground ("EQUATIONS, DIFFUSION*GENERAL")
IS BRUT (brown)'
AIDE = 'Permet de préconditionner le système relatif
a la diffusion des traceurs.'
AIDE1 = 'Choice of preconditioning for the diffusion of tracers'

NOM = 'MAXIMUM D''ITERATIONS POUR LA DIFFUSION DU SEDIMENT'
NOM1 = 'MAXIMUM NUMBER OF ITERATIONS FOR DIFFUSION OF SEDIMENT'
TYPE = ENTIER
INDEX = 29
MNEMO = ''
TAILLE = 0
DEFAUT = 60
DEFAUT1 = 60
RUBRIQUE = 'EQUATIONS, DIFFUSION';'TRACEUR'
RUBRIQUE1 = 'EQUATIONS, DIFFUSION';'TRACER'
NIVEAU = 1
COMPORT = 
'Foreground ("EQUATIONS, DIFFUSION*TRACEUR")
IS BRUT (brown)'
AIDE = 'Limite le nombre d''itérations du solveur à chaque pas
de temps pour le calcul de la diffusion du sediment.'
AIDE1 = 'Limits the number of iterations of the solver for the diffusion
 of sediment'

NOM = 'PRECONDITIONNEMENT POUR LA DIFFUSION DU K-EPSILON'
NOM1 = 'PRECONDITIONING FOR DIFFUSION OF K-EPSILON'
TYPE = ENTIER
INDEX = 30
MNEMO = ''
TAILLE = 0
DEFAUT = 2
DEFAUT1 = 2
CHOIX = '0="AUCUN"';
        '2="DIAGONAL"';
        '3="DIAGONAL CONDENSEE"';
        '7="CROUT"';
        '14="DIAGONAL ET CROUT"';
        '17="SOLVEUR DIRECT SUR LA VERTICALE"';
        '21="DIAGONAL CONDENSE ET CROUT"'
CHOIX1 = '0="no preconditioning"';
         '2="diagonal"';
         '3="diagonal condensed"';
         '7="crout"';
         '14="diagonal and crout"';
         '17="direct solver on the vertical"';
         '21="diagonal condensed and crout"'
RUBRIQUE = 'EQUATIONS, DIFFUSION';'GENERAL'
RUBRIQUE1 = 'EQUATIONS, DIFFUSION';'GENERAL'
NIVEAU = 1
COMPORT = 
'Foreground ("EQUATIONS, DIFFUSION*GENERAL")
IS BRUT (brown)'
AIDE = 'Permet de préconditionner le système relatif
a la diffusion du k-epsilon.'
AIDE1 = 'Choice of preconditioning for the diffusion of k and epsilon'

NOM = 'PRECONDITIONNEMENT POUR LA PROPAGATION'
NOM1 = 'PRECONDITIONING FOR PROPAGATION'
TYPE = ENTIER
INDEX = 31
MNEMO = ''
TAILLE = 0
DEFAUT = 2
DEFAUT1 = 2
CHOIX = '0="AUCUN"';
        '2="DIAGONAL"';
        '3="DIAGONAL CONDENSEE"';
        '7="CROUT"';
        '11="GAUSS-SEIDEL EBE"';
        '14="DIAGONAL ET CROUT"';
        '17="SOLVEUR DIRECT SUR LA VERTICALE"';
        '21="DIAGONAL CONDENSE ET CROUT"'
CHOIX1 = '0="no preconditioning"';
         '2="diagonal"';
         '3="diagonal condensed"';
         '7="crout"';
         '11="GAUSS-SEIDEL EBE"';
         '14="diagonal and crout"';
         '17="direct solver on the vertical"';
         '21="diagonal condensed and crout"'
RUBRIQUE = 'EQUATIONS';'PROPAGATION'
RUBRIQUE1 = 'EQUATIONS';'PROPAGATION'
NIVEAU = 1
AIDE = 'Permet de preconditionner le systeme de l''etape de propagation
afin d''accelerer la convergence lors de sa resolution.
 - 0 : pas de preconditionnement;
 - 2 : preconditionnement diagonal.
 - 3 : preconditionnement diagonal-bloc
 - 7 : preconditionnement de Crout par element.
Certains preconditionnements sont cumulables
(les diagonaux 2 ou 3 avec les autres)
Pour cette raison on ne retient que les nombres premiers pour
designer les preconditionnements. Si l''on souhaite en cumuler
plusieurs on formera le produit des options correspondantes.'
AIDE1 = 'Choice of the preconditioning in the propagation step linear
system that the convergence is speeded up when it is being solved.
 0: no preconditioning
 2: diagonal preconditioning
 3: diagonal preconditioning with the condensed matrix
 7: Crout''s preconditioning per element (not implemented).
Some operations (either 2 or 3 diagonal preconditioning) can be
performed concurrently with the others.
Only prime numbers are therefore kept to denote the preconditioning
operations. When several of them are to be performed concurrently,
the product of relevant options shall be made.'

NOM = 'PRECONDITIONNEMENT POUR LA VITESSE VERTICALE'
NOM1 = 'PRECONDITIONING FOR VERTICAL VELOCITY'
TYPE = ENTIER
INDEX = 32
MNEMO = ''
TAILLE = 0
DEFAUT = 2
DEFAUT1 = 2
CHOIX = '0="AUCUN"';
        '2="DIAGONAL"';
        '3="DIAGONAL CONDENSEE"';
        '7="CROUT"';
        '14="DIAGONAL ET CROUT"';
        '17="SOLVEUR DIRECT SUR LA VERTICALE"';
        '21="DIAGONAL CONDENSE ET CROUT"'
CHOIX1 = '0="no preconditioning"';
         '2="diagonal"';
         '3="diagonal condensed"';
         '7="crout"';
         '14="diagonal and crout"';
         '17="direct solver on the vertical"';
         '21="diagonal condensed and crout"'
RUBRIQUE = 'EQUATIONS';'GENERAL'
RUBRIQUE1 = 'EQUATIONS';'GENERAL'
NIVEAU = 1
AIDE = 'Permet de préconditionner le système relatif
au calcul de la vitesse verticale.'
AIDE1 = 'Choice of preconditioning for the diffusion of 
vertical velocity'

NOM = 'SOLVEUR POUR LA DIFFUSION DES VITESSES'
NOM1 = 'SOLVER FOR DIFFUSION OF VELOCITIES'
TYPE = ENTIER
INDEX = 33
MNEMO = 'SLVDVI%SLV'
TAILLE = 0
DEFAUT = 1
DEFAUT1 = 1
CHOIX = '1="GRADIENT CONJUGE"';
        '2="RESIDU CONJUGE"';
        '3="GRADIENT CONJUGE SUR EQUATION NORMALE"';
        '4="ERREUR MINIMALE"';
        '5="GRADIENT CONJUGE CARRE"';
        '6="CGSTAB"';
        '7="GMRES"';
        '8="SOLVEUR DIRECT"'
CHOIX1 = '1="conjugate gradient"';
         '2="conjugate residual"';
         '3="conjugate gradient on a normal equation"';
         '4="minimum error"';
         '5="squared conjugate gradient"';
         '6="cgstab"';
         '7="gmres"';
         '8="direct solver"'
CONTROLE = 1 ; 7
RUBRIQUE = 'EQUATIONS, DIFFUSION';'GENERAL'
RUBRIQUE1 = 'EQUATIONS, DIFFUSION';'GENERAL'
NIVEAU = 1
COMPORT = 
'Foreground ("EQUATIONS, DIFFUSION*GENERAL")
IS BRUT (brown)'
AIDE = 'Permet de choisir le solveur utilisé pour la résolution de
la diffusion des vitesses.'
AIDE1 = 'Choice of the solver for the diffusion of velocities'

NOM = 'SOLVEUR POUR LA DIFFUSION DES TRACEURS'
NOM1 = 'SOLVER FOR DIFFUSION OF TRACERS'
TYPE = ENTIER
INDEX = 34
MNEMO = 'SLVDTA(ITRAC)%SLV'
TAILLE = 1
DEFAUT = 1
DEFAUT1 = 1
CHOIX = '1="GRADIENT CONJUGE"';
        '2="RESIDU CONJUGE"';
        '3="GRADIENT CONJUGE SUR EQUATION NORMALE"';
        '4="ERREUR MINIMALE"';
        '5="GRADIENT CONJUGE CARRE"';
        '6="CGSTAB"';
        '7="GMRES"';
        '8="SOLVEUR DIRECT"'
CHOIX1 = '1="conjugate gradient"';
         '2="conjugate residual"';
         '3="conjugate gradient on a normal equation"';
         '4="minimum error"';
         '5="squared conjugate gradient"';
         '6="cgstab"';
         '7="gmres"';
         '8="direct solver"'
CONTROLE = 1 ; 7
RUBRIQUE = 'EQUATIONS, DIFFUSION';'GENERAL'
RUBRIQUE1 = 'EQUATIONS, DIFFUSION';'GENERAL'
NIVEAU = 1
COMPORT = 
'Foreground ("EQUATIONS, DIFFUSION*GENERAL")
IS BRUT (brown)'
AIDE = 'Permet de choisir le solveur utilisé pour la résolution de
la diffusion des traceurs.'
AIDE1 = 'Choice of the solver for the diffusion of tracers'

NOM = 'PERIODE DE COUPLAGE POUR TOMAWAC'
NOM1 = 'COUPLING PERIOD FOR TOMAWAC'
TYPE = ENTIER
INDEX = 35
MNEMO = 'PERCOU_WAC'
TAILLE = 0
DEFAUT = 1
DEFAUT1 = 1
RUBRIQUE = 'PARAMETRES NUMERIQUES';'GENERAL'
RUBRIQUE1 = 'NUMERICAL PARAMETERS';'GENERAL'
NIVEAU = 1
AIDE = 'pour eviter de faire le couplage a chaque pas de temps'
AIDE1 = 'to avoid coupling at every time-step'

NOM = 'SOLVEUR POUR LA DIFFUSION DU K-EPSILON'
NOM1 = 'SOLVER FOR DIFFUSION OF K-EPSILON'
TYPE = ENTIER
INDEX = 36
MNEMO = ''
TAILLE = 0
DEFAUT = 1
DEFAUT1 = 1
CHOIX = '1="GRADIENT CONJUGE"';
        '2="RESIDU CONJUGE"';
        '3="GRADIENT CONJUGE SUR EQUATION NORMALE"';
        '4="ERREUR MINIMALE"';
        '5="GRADIENT CONJUGE CARRE"';
        '6="CGSTAB"';
        '7="GMRES"';
        '8="SOLVEUR DIRECT"'
CHOIX1 = '1="conjugate gradient"';
         '2="conjugate residual"';
         '3="conjugate gradient on a normal equation"';
         '4="minimum error"';
         '5="squared conjugate gradient"';
         '6="cgstab"';
         '7="gmres"';
         '8="direct solver"'
CONTROLE = 1 ; 7
RUBRIQUE = 'EQUATIONS, DIFFUSION';'GENERAL'
RUBRIQUE1 = 'EQUATIONS, DIFFUSION';'GENERAL'
NIVEAU = 1
COMPORT = 
'Foreground ("EQUATIONS, DIFFUSION*GENERAL")
IS BRUT (brown)'
AIDE = 'Permet de choisir le solveur utilise pour la resolution de
la diffusion du modele k-epsilon.'
AIDE1 = 'Choice of the solver for the diffusion of k and epsilon'

NOM = 'SOLVEUR POUR LA PROPAGATION'
NOM1 = 'SOLVER FOR PROPAGATION'
TYPE = ENTIER
INDEX = 37
MNEMO = 'SLVPRO%SLV'
TAILLE = 0
DEFAUT = 1
DEFAUT1 = 1
CHOIX = '1="GRADIENT CONJUGE"';
        '2="RESIDU CONJUGE"';
        '3="GRADIENT CONJUGE SUR EQUATION NORMALE"';
        '4="ERREUR MINIMALE"';
        '5="GRADIENT CONJUGE CARRE"';
        '6="CGSTAB"';
        '7="GMRES"';
        '8="SOLVEUR DIRECT"'
CHOIX1 = '1="conjugate gradient"';
         '2="conjugate residual"';
         '3="conjugate gradient on a normal equation"';
         '4="minimum error"';
         '5="squared conjugate gradient"';
         '6="cgstab"';
         '7="gmres"';
         '8="direct solver"'
CONTROLE = 1 ; 7
RUBRIQUE = 'EQUATIONS';'PROPAGATION'
RUBRIQUE1 = 'EQUATIONS';'PROPAGATION'
NIVEAU = 1
AIDE = 'Permet de choisir le solveur utilisé pour la résolution de
l''étape de propagation.'
AIDE1 = 'Choice of the solver for the propagation equation'

NOM = 'SOLVEUR POUR LA VITESSE VERTICALE'
NOM1 = 'SOLVER FOR VERTICAL VELOCITY'
TYPE = ENTIER
INDEX = 38
MNEMO = ''
TAILLE = 0
DEFAUT = 1
DEFAUT1 = 1
CHOIX = '1="GRADIENT CONJUGE"';
        '2="RESIDU CONJUGE"';
        '3="GRADIENT CONJUGE SUR EQUATION NORMALE"';
        '4="ERREUR MINIMALE"';
        '5="GRADIENT CONJUGE CARRE"';
        '6="CGSTAB"';
        '7="GMRES"';
        '8="SOLVEUR DIRECT"'
CHOIX1 = '1="conjugate gradient"';
         '2="conjugate residual"';
         '3="conjugate gradient on a normal equation"';
         '4="minimum error"';
         '5="squared conjugate gradient"';
         '6="cgstab"';
         '7="gmres"';
         '8="direct solver"'
CONTROLE = 1 ; 7
RUBRIQUE = 'EQUATIONS';'GENERAL'
RUBRIQUE1 = 'EQUATIONS';'GENERAL'
NIVEAU = 1
AIDE = 'Permet de choisir le solveur utilisé pour le calcul de
la vitesse verticale.'
AIDE1 = 'Choice of the solver for the diffusion of vertical velocity'

NOM = 'MAXIMUM D''ITERATIONS POUR LA DIFFUSION DES VITESSES'
NOM1 = 'MAXIMUM NUMBER OF ITERATIONS FOR DIFFUSION OF VELOCITIES'
TYPE = ENTIER
INDEX = 39
MNEMO = ''
TAILLE = 0
DEFAUT = 60
DEFAUT1 = 60
RUBRIQUE = 'EQUATIONS, DIFFUSION';'GENERAL'
RUBRIQUE1 = 'EQUATIONS, DIFFUSION';'GENERAL'
NIVEAU = 1
AIDE = 'Limite le nombre d''itérations du solveur à chaque pas
de temps pour le calcul de la diffusion de la vitesse.'
AIDE1 = 'Limits the number of iterations for the diffusion of
 velocities'

NOM = 'MAXIMUM D''ITERATIONS POUR LA DIFFUSION DES TRACEURS'
NOM1 = 'MAXIMUM NUMBER OF ITERATIONS FOR DIFFUSION OF TRACERS'
TYPE = ENTIER
INDEX = 40
MNEMO = ''
TAILLE = 0
DEFAUT = 60
DEFAUT1 = 60
RUBRIQUE = 'EQUATIONS, DIFFUSION';'TRACEUR'
RUBRIQUE1 = 'EQUATIONS, DIFFUSION';'TRACER'
NIVEAU = 1
COMPORT = 
'Foreground ("EQUATIONS, DIFFUSION*TRACEUR")
IS BRUT (brown)'
AIDE = 'Limite le nombre d''itérations du solveur à chaque pas
de temps pour le calcul de la diffusion des traceurs.'
AIDE1 = 'Limits the number of iterations for the diffusion of
 tracers'

NOM = 'PERIODE DE COUPLAGE POUR SISYPHE'
NOM1 = 'COUPLING PERIOD FOR SISYPHE'
TYPE = ENTIER
INDEX = 41
MNEMO = 'PERCOU_SIS'
TAILLE = 0
DEFAUT = 1
DEFAUT1 = 1
RUBRIQUE = 'PARAMETRES NUMERIQUES';'GENERAL'
RUBRIQUE1 = 'NUMERICAL PARAMETERS';'GENERAL'
NIVEAU = 1
AIDE = 'pour eviter de faire le couplage a chaque pas de temps'
AIDE1 = 'to avoid coupling at every time-step'

NOM = 'MAXIMUM D''ITERATIONS POUR LA DIFFUSION DU K-EPSILON'
NOM1 = 'MAXIMUM NUMBER OF ITERATIONS FOR DIFFUSION OF K-EPSILON'
TYPE = ENTIER
INDEX = 42
MNEMO = ''
TAILLE = 0
DEFAUT = 200
DEFAUT1 = 200
RUBRIQUE = 'PARAMETRES NUMERIQUES, MODELE K-EPSILON'
RUBRIQUE1 = 'NUMERICAL PARAMETERS, K-EPSILON MODEL'
NIVEAU = 1
COMPORT = 
'Foreground ("PARAMETRES NUMERIQUES, MODELE K-EPSILON")
IS BRUT (blue)'
AIDE = 'Fixe le nombre maximum d''itérations accepté lors de la
résolution du système diffusion-termes sources du modèle k-epsilon.'
AIDE1 = 'Limits the number of iterations for the diffusion of
 k and epsilon'

NOM = 'MAXIMUM D''ITERATIONS POUR LA PROPAGATION'
NOM1 = 'MAXIMUM NUMBER OF ITERATIONS FOR PROPAGATION'
TYPE = ENTIER
INDEX = 43
MNEMO = ''
TAILLE = 0
DEFAUT = 200
DEFAUT1 = 200
RUBRIQUE = 'EQUATIONS';'PROPAGATION'
RUBRIQUE1 = 'EQUATIONS';'PROPAGATION'
NIVEAU = 1
COMPORT = 
'Foreground ("EQUATIONS*PROPAGATION")
IS BRUT (blue)'
AIDE = 'Les algorithmes utilisés pour la résolution de l''étape de
propagation étant itératifs; il est nécessaire de limiter le nombre
d''itérations autorisées.
Remarque : un maximum de 40 itérations par pas de temps semble
raisonnable.'
AIDE1 = 'Since the algorithms used for solving the propagation step are
iterative, the allowed number of iterations should be limited.
NOTE: a maximum number of 40 iterations per time step seems to be
reasonable.'

NOM = 'MAXIMUM D''ITERATIONS POUR LA VITESSE VERTICALE'
NOM1 = 'MAXIMUM NUMBER OF ITERATIONS FOR VERTICAL VELOCITY'
TYPE = ENTIER
INDEX = 44
MNEMO = ''
TAILLE = 0
DEFAUT = 100
DEFAUT1 = 100
RUBRIQUE = 'EQUATIONS';'GENERAL'
RUBRIQUE1 = 'EQUATIONS';'GENERAL'
NIVEAU = 1
AIDE = 'Fixe le nombre maximum d''itérations accepté lors de la
résolution du calcul de la vitesse verticale.'
AIDE1 = 'Limits the number of iterations for the diffusion of
 vertical velocity'

NOM = 'PROCESSEURS PARALLELES'
NOM1 = 'PARALLEL PROCESSORS'
TYPE = ENTIER
INDEX = 45
MNEMO = ''
TAILLE = 0
DEFAUT = 0
DEFAUT1 = 0
RUBRIQUE = 'EQUATIONS';'GENERAL'
RUBRIQUE1 = 'EQUATIONS';'GENERAL'
NIVEAU = 1
AIDE = 'nombre de processeurs pour la decomposition en paralele'
AIDE1 = 'number of processors for domain decomposition'

NOM = 'TRAITEMENT SUR LES BANCS DECOUVRANTS POUR LES VITESSES'
NOM1 = 'TREATMENT ON TIDAL FLATS FOR VELOCITIES'
TYPE = ENTIER
INDEX = 46
MNEMO = 'TRBAVI'
TAILLE = 0
CHOIX = '0="FORCAGE A ZERO"';
        '1="VALEUR AVANT MASQUAGE"'
CHOIX1 = '0="FORCED TO ZERO"';
         '1="VALUE BEFORE MASKED"'
CONTROLE = 0 ; 1
DEFAUT = 0
DEFAUT1 = 0
RUBRIQUE = 'EQUATIONS';'GENERAL'
RUBRIQUE1 = 'EQUATIONS';'GENERAL'
NIVEAU = 1
AIDE = 'Traitement sur les bancs decouvrants a l''etape de diffusion'
AIDE1 = 'Treatment of tidal flats at diffusion step level'

NOM = 'TRAITEMENT SUR LES BANCS DECOUVRANTS POUR LES TRACEURS'
NOM1 = 'TREATMENT ON TIDAL FLATS FOR TRACERS'
TYPE = ENTIER
INDEX = 47
MNEMO = 'TRBATA'
TAILLE = 0
CHOIX = '0="FORCAGE A ZERO"';
        '1="VALEUR AVANT MASQUAGE"'
CHOIX1 = '0="FORCED TO ZERO"';
         '1="VALUE BEFORE MASKED"'
CONTROLE = 0 ; 1
DEFAUT = 0
DEFAUT1 = 0
RUBRIQUE = 'EQUATIONS';'GENERAL'
RUBRIQUE1 = 'EQUATIONS';'GENERAL'
NIVEAU = 1
AIDE = 'Traitement sur les bancs decouvrants a l''etape de diffusion'
AIDE1 = 'Treatment of tidal flats at diffusion step level'

NOM = 'CONDITION A LA LIMITE AU FOND'
NOM1 = 'BOUNDARY CONDITION ON THE BOTTOM'
TYPE = ENTIER
INDEX = 48
MNEMO = 'BC_BOTTOM'
TAILLE = 0
CHOIX = '1="LOI LOGARITHMIQUE POUR LES VITESSES AU FOND"';
        '2="VITESSES NULLES AU FOND"'
CHOIX1 = '1="LOG LAW FOR VELOCITIES ON BOTTOM"';
         '2="NO SLIP FOR VELOCITIES ON BOTTOM"'
CONTROLE = 1 ; 2 
DEFAUT = 1
DEFAUT1 = 1
RUBRIQUE = 'EQUATIONS';'GENERAL'
RUBRIQUE1 = 'EQUATIONS';'GENERAL'
NIVEAU = 1
AIDE = '1 : conditions de Neumann pour les vitesses au fond
2 : vitesses nulles au fond. VA de pair logiquement avec
 un bon raffinement du maillage au fond'
AIDE1 = 'If 1, Neumann conditions on velocity on bottom
If 2 velocities will be set to 0. Should be linked to
 a refined mesh near the bottom'

NOM = 'TRAITEMENT SUR LES BANCS DECOUVRANTS POUR LE K-EPSILON'
NOM1 = 'TREATMENT ON TIDAL FLATS FOR K-EPSILON'
TYPE = ENTIER
INDEX = 49
MNEMO = 'TRBAKE'
TAILLE = 0
CHOIX = '0="FORCAGE A ZERO"';
        '1="VALEUR AVANT MASQUAGE"'
CHOIX1 = '0="FORCED TO ZERO"';
         '1="VALUE BEFORE MASKED"'
CONTROLE = 0 ; 1
DEFAUT = 0
DEFAUT1 = 0
RUBRIQUE = 'EQUATIONS';'GENERAL'
RUBRIQUE1 = 'EQUATIONS';'GENERAL'
NIVEAU = 1
AIDE = 'Traitement sur les bancs decouvrants a l''etape de diffusion'
AIDE1 = 'Treatment of tidal flats at diffusion step level'

NOM = 'PAS DE TEMPS'
NOM1 = 'TIME STEP'
TYPE = REEL
INDEX = 1
MNEMO = ''
TAILLE = 0
DEFAUT = 1.
DEFAUT1 = 1.
RUBRIQUE = 'PARAMETRES NUMERIQUES';'DUREE DU CALCUL'
RUBRIQUE1 = 'NUMERICAL PARAMETERS';'DURATION'
NIVEAU = 1
AIDE = 'Définit le pas de temps en secondes.
Remarque : Pour une bonne précision; il est souhaitable de choisir
le pas de temps de telle sorte que le nombre de Courant de propagation
soit inférieur à 2 ; voir 3.
Ceci peut etre réalisable en hydraulique fluviale ; mais ne l''est
pratiquement jamais en hydraulique maritime ou l''on peut atteindre
des valeurs de 50.'
AIDE1 = 'Specifies the time step in seconds.'

NOM = 'ACCELERATION DE LA PESANTEUR'
NOM1 = 'GRAVITY ACCELERATION'
TYPE = REEL
INDEX = 2
MNEMO = ''
TAILLE = 0
DEFAUT = 9.81
DEFAUT1 = 9.81
RUBRIQUE = 'CONSTANTES PHYSIQUES'
RUBRIQUE1 = 'PHYSICAL CONSTANTS'
COMPORT =
'Foreground ("CONSTANTES PHYSIQUES")
IS BRUT (yellow)'
NIVEAU = 1
AIDE = 'Fixe la valeur de l''accélération de la pesanteur.'
AIDE1 = 'Set the value of the acceleration due to gravity.'

NOM = 'COEFFICIENT DE CORIOLIS'
NOM1 = 'CORIOLIS COEFFICIENT'
TYPE = REEL
INDEX = 3
MNEMO = ''
TAILLE = 0
DEFAUT = 0.
DEFAUT1 = 0.
RUBRIQUE = 'CONSTANTES PHYSIQUES'
RUBRIQUE1 = 'PHYSICAL CONSTANTS'
NIVEAU = 1
COMPORT =
'Foreground ("CONSTANTES PHYSIQUES")
IS BRUT (brown)'
AIDE = 'Fixe la valeur du coefficient de la force de Coriolis.
Celui-ci doit etre calculé en fonction de la latitude l par la formule
     FCOR = 2w sin(l) , w étant la vitesse de rotation de la terre.
                        w = 7.27 10-5 rad/s
Les composantes de la force de Coriolis sont alors :
   FU =   FCOR x V
   FV = - FCOR x U'
AIDE1 = 'Sets the value of the Coriolis force coefficient, in cartesian
coordinates.
This coefficient, denoted FCOR in the code, should be equal to
2 w sin(l)d  where w denotes the earth angular speed of rotation
and l the latitude. w = 7.27 10-5 rad/sec
The Coriolis force components are then:
FU =  FCOR x V,
FV = -FCOR x U
In spherical coordinates, the latitudes are known and this'

NOM = 'COEFFICIENT D''INFLUENCE DU VENT'
NOM1 = 'COEFFICIENT OF WIND INFLUENCE'
TYPE = REEL
INDEX = 4
MNEMO = 'FAIR'
TAILLE = 0
DEFAUT = 0.
DEFAUT1 = 0.
RUBRIQUE = 'EQUATIONS';'VENT';'VALEURS NUMERIQUES'
RUBRIQUE1 = 'EQUATIONS';'WIND';'NUMERICS VALUES'
NIVEAU = 1
COMPORT =
'Foreground ("EQUATIONS*VENT*VALEURS NUMERIQUES")
IS BRUT (brown)'
AIDE = 'Fixe la valeur du coefficient d''entrainement du vent (cf.
Note de principe).'
AIDE1 = 'Sets the value of the wind driving coefficient.
Refer to principle note.'

NOM = 'VITESSE DU VENT SUIVANT X'
NOM1 = 'WIND VELOCITY ALONG X'
TYPE = REEL
INDEX = 5
MNEMO = ''
TAILLE = 0
DEFAUT = 0.
DEFAUT1 = 0.
RUBRIQUE = 'EQUATIONS';'VENT';'VALEURS NUMERIQUES'
RUBRIQUE1 = 'EQUATIONS';'WIND';'NUMERICS VALUES'
NIVEAU = 1
AIDE = 'Composante de la vitesse du vent suivant l''axe des x (m/s).'
AIDE1 = 'Wind velocity, component along x axis (m/s).'

NOM = 'VITESSE DU VENT SUIVANT Y'
NOM1 = 'WIND VELOCITY ALONG Y'
TYPE = REEL
INDEX = 6
MNEMO = ''
TAILLE = 0
DEFAUT = 0.
DEFAUT1 = 0.
RUBRIQUE = 'EQUATIONS';'VENT';'VALEURS NUMERIQUES'
RUBRIQUE1 = 'EQUATIONS';'WIND';'NUMERICS VALUES'
NIVEAU = 1
AIDE = 'Composante de la vitesse du vent suivant l''axe des y (m/s).'
AIDE1 = 'Wind velocity, component along y axis (m/s).'

NOM = 'TEMPERATURE DE L''AIR'
NOM1 = 'AIR TEMPERATURE'
TYPE = REEL
INDEX = 7
MNEMO = ''
TAILLE = 0
DEFAUT = 10.
DEFAUT1 = 10.
RUBRIQUE = 'EQUATIONS';'AIR';'VALEURS NUMERIQUES'
RUBRIQUE1 = 'EQUATIONS';'AIR';'NUMERICS VALUES'
NIVEAU = 1
COMPORT =
'Foreground ("EQUATIONS*AIR*VALEURS NUMERIQUES")
IS BRUT (brown)'
AIDE = 'Fixe la temperature de l''air dans le cas d''echanges avec
l''atmosphere.'
AIDE1 = 'Air temperature in the case of exchanges with atmosphere'

NOM = 'COEFFICIENT DE DILATATION BETA POUR LES TRACEURS'
NOM1 = 'BETA EXPANSION COEFFICIENT FOR TRACERS'
TYPE = REEL
INDEX = 8
MNEMO = 'BETAC'
TAILLE = 1
DEFAUT=0.
DEFAUT1=0.
RUBRIQUE = 'CONSTANTES PHYSIQUES'
RUBRIQUE1 = 'PHYSICAL CONSTANTS'
NIVEAU = 1
AIDE = 'Unite : K-1.'
AIDE1 = 'Unit : K-1.'

NOM = 'VALEURS DE REFERENCE DES TRACEURS'
NOM1 = 'STANDARD VALUES FOR TRACERS'
TYPE = REEL
INDEX = 9
MNEMO = 'T0AC'
TAILLE = 1
DEFAUT=0.
DEFAUT1=0.
RUBRIQUE = 'EQUATIONS, TRACEUR'
RUBRIQUE1 = 'EQUATIONS, TRACER'
NIVEAU = 1
AIDE = 'Valeur du traceur pour laquelle la densite est donnee.'
AIDE1 = 'Reference value of tracers corresponding to given density'

NOM = 'MASSE VOLUMIQUE DE REFERENCE'
NOM1 = 'DENSITY FOR STANDARD VALUE'
TYPE = REEL
INDEX = 10
MNEMO = 'RHO0'
TAILLE = 0
DEFAUT = 1025.
DEFAUT1 = 1025.
RUBRIQUE = 'CONSTANTES PHYSIQUES'
RUBRIQUE1 = 'PHYSICAL CONSTANTS'
NIVEAU = 1
AIDE = 'Valeur de la densite a la concentration de reference.'
AIDE1 = 'Density'

NOM = 'COEFFICIENT DE FROTTEMENT POUR LE FOND'
NOM1 = 'FRICTION COEFFICIENT FOR THE BOTTOM'
TYPE = REEL
INDEX = 11
MNEMO = 'RUGOF0'
TAILLE = 0
DEFAUT = 60.
DEFAUT1 = 60.
RUBRIQUE = 'EQUATIONS';'FROTTEMENT'
RUBRIQUE1 = 'EQUATIONS';'FRICTION'
NIVEAU = 1
COMPORT =
'Foreground ("EQUATIONS*FROTTEMENT")
IS BRUT (brown)'
AIDE = 'Fixe la valeur du coefficient de frottement au fond.'
AIDE1 = 'Friction coefficient on the bottom, if constant'

NOM = 'COEFFICIENT DE FROTTEMENT POUR LES PAROIS LATERALES'
NOM1 = 'FRICTION COEFFICIENT FOR LATERAL SOLID BOUNDARIES'
TYPE = REEL
INDEX = 12
MNEMO = ''
TAILLE = 0
DEFAUT = 60.
DEFAUT1 = 60.
RUBRIQUE = 'EQUATIONS';'FROTTEMENT'
RUBRIQUE1 = 'EQUATIONS';'FRICTION'
NIVEAU = 1
COMPORT =
'Foreground ("EQUATIONS*FROTTEMENT")
IS BRUT (brown)'
AIDE = 'Fixe la valeur du coefficient de frottement sur les parois.'
AIDE1 = 'Friction coefficient on the lateral boundaries, if constant'

NOM = 'ZERO'
NOM1 = 'ZERO'
TYPE = REEL
INDEX = 13
MNEMO = ''
TAILLE = 0
DEFAUT = 1.E-20
DEFAUT1 = 1.E-20
RUBRIQUE = 'PARAMETRES NUMERIQUES';'GENERAL'
RUBRIQUE1 = 'NUMERICAL PARAMETERS';'GENERAL'
NIVEAU = -13
AIDE = 'Non activé pour l''instant.'
AIDE1 = 'Not used so far'

NOM = 'VALEUR MINIMALE POUR LA HAUTEUR'
NOM1 = 'MINIMAL VALUE FOR DEPTH'
TYPE = REEL
INDEX = 14
MNEMO = 'HMIN'
TAILLE = 0
DEFAUT = -1000.
DEFAUT1 = -1000.
RUBRIQUE = 'PARAMETRES NUMERIQUES, VITESSE-CELERITE-HAUTEUR'
RUBRIQUE1 = 'NUMERICAL PARAMETERS, VELOCITY-CELERITY-HAUTEUR'
NIVEAU = 1
AIDE = 'Fixe la valeur minimale de H'
AIDE1 = 'Sets the minimum H value'

NOM = 'PROFONDEUR MOYENNE POUR LA LINEARISATION'
NOM1 = 'MEAN DEPTH FOR LINEARIZATION'
TYPE = REEL
INDEX = 15
MNEMO = ''
TAILLE = 0
DEFAUT = 0.
DEFAUT1 = 0.
RUBRIQUE = 'EQUATIONS';'HAUTEUR'
RUBRIQUE1 = 'EQUATIONS';'DEPTH'
NIVEAU = 1
COMPORT =
'Foreground ("EQUATIONS*HAUTEUR")
IS BRUT (brown)'
AIDE = 'Fixe la hauteur d''eau autour de laquelle s''effectue la
linéarisation lorsque l''option PROPAGATION LINEARISEE est choisie.'
AIDE1 = 'Sets the water depth about which the linearization is made when
the LINEARIZED PROPAGATION OPTION is selected.'

NOM = 'COEFFICIENT DE DIFFUSION HORIZONTAL DES VITESSES'
NOM1 = 'COEFFICIENT FOR HORIZONTAL DIFFUSION OF VELOCITIES'
TYPE = REEL
INDEX = 16
MNEMO = ''
TAILLE = 0
/ NOUVELLE VALEUR : 28/02/2006 (demande Sogreah) ancienne : 1.E-4
DEFAUT = 1.E-6
DEFAUT1 = 1.E-6
RUBRIQUE = 'EQUATIONS';'MODELE DE TURBULENCE';'VISCOSITE CONSTANTE'
RUBRIQUE1 = 'EQUATIONS';'TURBULENCE MODEL';'CONSTANT VISCOSITY'
NIVEAU = 1
COMPORT =
'Foreground ("EQUATIONS*MODELE DE TURBULENCE*VISCOSITE CONSTANTE")
IS BRUT (brown)'
AIDE = 'Fixe de facon uniforme pour l''ensemble du domaine;
la valeur du coefficient de diffusion de viscosité globale (dynamique +
turbulente). Cette valeur peut avoir une influence non négligeable sur
la forme et la taille des recirculations.'
AIDE1 = 'Sets, in an even way for the whole domain, the value of the
coefficient of global (dynamic+turbulent) viscosity. this value may
have a significant effect both on the shapes and sizes of
recirculation zones.'

NOM = 'COEFFICIENT DE DIFFUSION VERTICAL DES VITESSES'
NOM1 = 'COEFFICIENT FOR VERTICAL DIFFUSION OF VELOCITIES'
TYPE = REEL
INDEX = 17
MNEMO = ''
TAILLE = 0
DEFAUT = 1.E-6
DEFAUT1 = 1.E-6
RUBRIQUE = 'EQUATIONS';'MODELE DE TURBULENCE';'VISCOSITE CONSTANTE'
RUBRIQUE1 = 'EQUATIONS';'TURBULENCE MODEL';'CONSTANT VISCOSITY'
NIVEAU = 1
COMPORT =
'Foreground ("EQUATIONS*MODELE DE TURBULENCE*VISCOSITE CONSTANTE")
IS BRUT (brown)'
AIDE = 'Fixe de facon uniforme pour l''ensemble du domaine;
la valeur du coefficient de diffusion de viscosité globale (dynamique +
turbulente). Cette valeur peut avoir une influence non négligeable sur
la forme et la taille des recirculations.'
AIDE1 = 'Sets, in an even way for the whole domain, the value of the
coefficient of global (dynamic+turbulent) viscosity. this value may
have a significant effect both on the shapes and sizes of
recirculation zones.'

NOM = 'COEFFICIENT DE DIFFUSION HORIZONTAL DES TRACEURS'
NOM1 = 'COEFFICIENT FOR HORIZONTAL DIFFUSION OF TRACERS'
TYPE = REEL
INDEX = 18
MNEMO = 'DNUTAH'
TAILLE = 0
DEFAUT = 1.E-6
DEFAUT1 = 1.E-6
RUBRIQUE = 'EQUATIONS';'MODELE DE TURBULENCE';'VISCOSITE CONSTANTE'
RUBRIQUE1 = 'EQUATIONS';'TURBULENCE MODEL';'CONSTANT VISCOSITY'
NIVEAU = 1
COMPORT =
'Foreground ("EQUATIONS*MODELE DE TURBULENCE*VISCOSITE CONSTANTE")
IS BRUT (brown)'
AIDE = 'Fixe la valeur du coefficient de diffusion du traceur.
L''influence de ce paramètre sur l''evolution du traceur dans
le temps est importante.'
AIDE1 = ''

NOM = 'COEFFICIENT DE DIFFUSION VERTICAL DES TRACEURS'
NOM1 = 'COEFFICIENT FOR VERTICAL DIFFUSION OF TRACERS'
TYPE = REEL
INDEX = 19
MNEMO = ''
TAILLE = 0
DEFAUT = 1.E-6
DEFAUT1 = 1.E-6
RUBRIQUE = 'EQUATIONS';'MODELE DE TURBULENCE';'VISCOSITE CONSTANTE'
RUBRIQUE1 = 'EQUATIONS';'TURBULENCE MODEL';'CONSTANT VISCOSITY'
NIVEAU = 1
COMPORT =
'Foreground ("EQUATIONS*MODELE DE TURBULENCE*VISCOSITE CONSTANTE")
IS BRUT (brown)'
AIDE = 'Fixe la valeur du coefficient de diffusion du traceur.
L''influence de ce parametre sur l''evolution du traceur dans
le temps est importante.'
AIDE1 = ''

NOM = 'VALEURS INITIALES DES TRACEURS'
NOM1 = 'INITIAL VALUES OF TRACERS'
TYPE = REEL
INDEX = 20
MNEMO = 'TRAC0'
TAILLE = 2
RUBRIQUE = 'PARAMETRES NUMERIQUES'
RUBRIQUE1 = 'NUMERICAL PARAMETERS'
NIVEAU = 1
AIDE = ''
AIDE1 = ''

NOM = 'PRECISION POUR LA DIFFUSION DU SEDIMENT'
NOM1 = 'ACCURACY FOR DIFFUSION OF SEDIMENT'
TYPE = REEL
INDEX = 21
MNEMO = 'SLVDSE%EPS'
TAILLE = 0
DEFAUT = 1.E-6
DEFAUT1 = 1.E-6
RUBRIQUE = 'EQUATIONS';'MODELE DE TURBULENCE';'VISCOSITE CONSTANTE'
RUBRIQUE1 = 'EQUATIONS';'TURBULENCE MODEL';'CONSTANT VISCOSITY'
NIVEAU = 1
AIDE = 'Fixe la précision demandée pour le calcul de la diffusion
des traceurs.'
AIDE1 = ''

NOM = 'PRECISION POUR LA DIFFUSION DES VITESSES'
NOM1 = 'ACCURACY FOR DIFFUSION OF VELOCITIES'
TYPE = REEL
INDEX = 22
MNEMO = 'SLVDVI%EPS'
TAILLE = 0
DEFAUT = 1.E-5
DEFAUT1 = 1.E-5
RUBRIQUE = 'EQUATIONS';'MODELE DE TURBULENCE';'VISCOSITE CONSTANTE'
RUBRIQUE1 = 'EQUATIONS';'TURBULENCE MODEL';'CONSTANT VISCOSITY'
NIVEAU = 1
AIDE = 'Fixe la précision demandée pour le calcul de la diffusion
de la vitesse.'
AIDE1 = ''

NOM = 'PRECISION POUR LA DIFFUSION DES TRACEURS'
NOM1 = 'ACCURACY FOR DIFFUSION OF TRACERS'
TYPE = REEL
INDEX = 23
MNEMO = 'SLVDTA(ITRAC)%EPS'
TAILLE = 0
DEFAUT = 1.E-6
DEFAUT1 = 1.E-6
RUBRIQUE = 'EQUATIONS';'MODELE DE TURBULENCE';'VISCOSITE CONSTANTE'
RUBRIQUE1 = 'EQUATIONS';'TURBULENCE MODEL';'CONSTANT VISCOSITY'
NIVEAU = 1
AIDE = 'Fixe la précision demandée pour le calcul de la diffusion
des traceurs.'
AIDE1 = ''

NOM = 'free 24'
NOM1 = ''
TYPE = REEL
INDEX = 24
MNEMO = ''
TAILLE = 0
DEFAUT = 0
DEFAUT1 = 0
RUBRIQUE = ''
RUBRIQUE1 = ''
NIVEAU = 1
AIDE = ''
AIDE1 = ''

NOM = 'PRECISION POUR LA DIFFUSION DU K-EPSILON'
NOM1 = 'ACCURACY FOR DIFFUSION OF K-EPSILON'
TYPE = REEL
INDEX = 25
MNEMO = ''
TAILLE = 0
DEFAUT = 1.E-6
DEFAUT1 = 1.E-6
RUBRIQUE = 'EQUATIONS';'MODELE DE TURBULENCE';'VISCOSITE CONSTANTE'
RUBRIQUE1 = 'EQUATIONS';'TURBULENCE MODEL';'CONSTANT VISCOSITY'
NIVEAU = 1
AIDE = 'Fixe la précision demandée pour le calcul de la diffusion
du k-epsilon.'
AIDE1 = ''

NOM = 'PRECISION POUR LA PROPAGATION'
NOM1 = 'ACCURACY FOR PROPAGATION'
TYPE = REEL
INDEX = 26
MNEMO = ''
TAILLE = 0
DEFAUT = 1.E-6
DEFAUT1 = 1.E-6
RUBRIQUE = 'EQUATIONS';'PROPAGATION'
RUBRIQUE1 = 'EQUATIONS';'PROPAGATION'
NIVEAU = 1
AIDE = 'Fixe la précision demandée pour l''etape de propagation.'
AIDE1 = ''

NOM = 'PRECISION POUR LA VITESSE VERTICALE'
NOM1 = 'ACCURACY FOR VERTICAL VELOCITY'
TYPE = REEL
INDEX = 27
MNEMO = ''
TAILLE = 0
DEFAUT = 1.E-6
DEFAUT1 = 1.E-6
RUBRIQUE = 'EQUATIONS';'GENERAL'
RUBRIQUE1 = 'EQUATIONS';'GENERAL'
NIVEAU = 1
AIDE = 'Fixe la précision demandée pour le calcul de la vitesse
verticale.'
AIDE1 = ''

NOM = 'IMPLICITATION POUR LA HAUTEUR'
NOM1 = 'IMPLICITATION FOR DEPTH'
TYPE = REEL
INDEX = 28
MNEMO = 'TETAH'
TAILLE = 0
DEFAUT = 0.55
DEFAUT1 = 0.55
RUBRIQUE = 'PARAMETRES NUMERIQUES, VITESSE-CELERITE-HAUTEUR'
RUBRIQUE1 = 'NUMERICAL PARAMETERS, VELOCITY-CELERITY-HIGHT'
NIVEAU = 1
CONTROLE = 0.5
AIDE = 'Fixe la valeur du coefficient d''implicitation sur C dans
l''étape de propagation (cf.  Note de principe).
Les valeurs inférieures à 0.5 donnent un schéma instable.'
AIDE1 = ''

NOM = 'IMPLICITATION POUR LES VITESSES'
NOM1 = 'IMPLICITATION FOR VELOCITIES'
TYPE = REEL
INDEX = 29
MNEMO = 'TETAU'
TAILLE = 0
DEFAUT = 1.
DEFAUT1 = 1.
RUBRIQUE = 'PARAMETRES NUMERIQUES, VITESSE-CELERITE-HAUTEUR'
RUBRIQUE1 = 'NUMERICAL PARAMETERS, VELOCITY-CELERITY-HIGHT'
NIVEAU = 1
AIDE = 'Fixe la valeur du coefficient d''implicitation sur la vitesse
dans l''étape de propagation (cf.  Note de principe).
Les valeurs inférieures à 0.5 donnent un schéma instable.'
AIDE1 = ''

NOM = 'MASS-LUMPING POUR LA HAUTEUR'
NOM1 = 'MASS-LUMPING FOR DEPTH'
TYPE = REEL
INDEX = 30
MNEMO = 'AGGLOH'
TAILLE = 0
DEFAUT = 0.
DEFAUT1 = 0.
RUBRIQUE = 'PARAMETRES NUMERIQUES, VITESSE-CELERITE-HAUTEUR'
RUBRIQUE1 = 'NUMERICAL PARAMETERS, VELOCITY-CELERITY-HIGHT'
NIVEAU = 1
AIDE = 'TELEMAC offre la possibilité d''effectuer du mass-lumping
sur H ou U.
Ceci revient à ramener tout ou partie (suivant la valeur de ce
coefficient) des matrices AM1 (H) ou AM2 (U) et AM3 (V) sur
leur diagonale.
Cette technique permet d''accélérer le code dans des proportions très
importantes et de le rendre également beaucoup plus stable. Cependant
les solutions obtenues se trouvent lissées.
Ce paramètre fixe le taux de mass-lumping effectué sur H.
Utilisation déconseillée.'
AIDE1 = ''

NOM = 'MASS-LUMPING POUR LES VITESSES'
NOM1 = 'MASS-LUMPING FOR VELOCITIES'
TYPE = REEL
INDEX = 31
MNEMO = 'AGGLOU'
TAILLE = 0
DEFAUT = 0.
DEFAUT1 = 0.
RUBRIQUE = 'PARAMETRES NUMERIQUES, VITESSE-CELERITE-HAUTEUR'
RUBRIQUE1 = 'NUMERICAL PARAMETERS, VELOCITY-CELERITY-HIGHT'
NIVEAU = 1
AIDE = 'Fixe le taux de mass-lumping effectué sur la vitesse.
Utilisation déconseillée.'
AIDE1 = 'Sets the amount of mass-lumping that is performed on
the velocity.  Not recommended for use.'

NOM = 'COTE DU PLAN INTERMEDIAIRE DE REFERENCE'
NOM1 = 'ELEVATION OF INTERMEDIATE REFERENCE LEVEL'
TYPE = REEL
INDEX = 32
MNEMO = ''
TAILLE = 0
DEFAUT = 0.
DEFAUT1 = 0.
RUBRIQUE = 'PARAMETRES NUMERIQUES'
RUBRIQUE1 = 'NUMERICAL PARAMETERS'
NIVEAU = 1
AIDE = 'Fixe la cote du plan intermediaire de reference'
AIDE1 = 'Sets the elevation of the intermediate reference level'

NOM = 'DEBITS IMPOSES'
NOM1 = 'PRESCRIBED FLOWRATES'
TYPE = REEL
INDEX = 33
MNEMO = 'DEBIMP'
TAILLE = 10
RUBRIQUE = 'PARAMETRES NUMERIQUES'
RUBRIQUE1 = 'NUMERICAL PARAMETERS'
NIVEAU = 1
AIDE = 'Fixe le debit sur les frontieres a debit impose'
AIDE1 = 'Sets the value for flow on flow-imposed boundaries'

NOM = 'COTES IMPOSEES'
NOM1 = 'PRESCRIBED ELEVATIONS'
TYPE = REEL
INDEX = 34
MNEMO = 'COTIMP'
TAILLE = 10
RUBRIQUE = 'PARAMETRES NUMERIQUES'
RUBRIQUE1 = 'NUMERICAL PARAMETERS'
NIVEAU = 1
AIDE = 'Fixe la cote sur les frontieres à cote imposée'
AIDE1 = 'Sets the elevation on elevation-imposed boundaries'

NOM = 'VITESSES IMPOSEES'
NOM1 = 'PRESCRIBED VELOCITIES'
TYPE = REEL
INDEX = 35
MNEMO = 'VITIMP'
TAILLE = 10
RUBRIQUE = 'PARAMETRES NUMERIQUES'
RUBRIQUE1 = 'NUMERICAL PARAMETERS'
NIVEAU = 1
AIDE = 'Fixe la vitesse sur les frontieres a vitesse imposee'
AIDE1 = 'Sets the velocity on velocity-imposed boundaries'

NOM = 'TITRE'
NOM1 = 'TITLE'
TYPE = CARACTERE
INDEX = 1
MNEMO = ''
TAILLE = 0
DEFAUT = ' '
DEFAUT1 = ' '
RUBRIQUE = 'ENTREES-SORTIES, GENERALITES';'CALCUL'
RUBRIQUE1 = 'INPUT-OUTPUT, INFORMATION';'COMPUTATIONAL INFORMATION'
NIVEAU = 1
COMPORT =
'Foreground ("ENTREES-SORTIES, GENERALITES*CALCUL")
IS BRUT (red)'
AIDE = 'Titre du cas étudié. Ce titre figurera sur les dessins.'
AIDE1 = 'Title of the case being considered. This title shall be marked
on the drawings.'

NOM = 'VARIABLES POUR LES SORTIES GRAPHIQUES 3D'
NOM1 = 'VARIABLES FOR 3D GRAPHIC PRINTOUTS'
TYPE = CARACTERE
INDEX = 2
MNEMO = ''
DEFAUT = 'Z,U,V,W'
DEFAUT1 = 'Z,U,V,W'
CHOIX = 'U="vitesse suivant l''axe des x (m/s)"';
'V="vitesse suivant l''axe des y (m/s)"';
'W="vitesse suivant l''axe des z (m/s)"';
'TA1="TAx concentrations des traceurs, x numero du traceur"';
'NUX="viscosite pour U et V suivant l''axe des x (m2/s)"';
'NUY="viscosite pour U et V suivant l''axe des y (m2/s)"';
'NUZ="viscosite pour U et V suivant l''axe des z (m2/s)"';
'NAX="viscosites pour les tr. suivant l''axe des x (m2/s)"';
'NAY="viscosites pour les tr. suivant l''axe des y (m2/s)"';
'NAZ="viscosites pour les tr. suivant l''axe des z (m2/s)"';
'RI="nombre de Richardson en cas de modele de longueur de melange"';
'K="energie turbulente du modele k-epsilon (J/kg)"';
'EPS="dissipation de l''energie turbulente (W/kg)"';
'DP="pression dynamique (multipliee par DT/RHO)"';
'RHO="densite relative."'
CHOIX1 = 'U="velocity along x axis (m/s)"';
'V="velocity along y axis (m/s)"';
'W="velocity along z axis (m/s)"';
'TA1="TAx concentrations for tracers, x is the tracer number"';
'NUX="viscosity for U and V along x axis (m2/s)"';
'NUY="viscosity for U and V along y axis (m2/s)"';
'NUZ="viscosity for U and V along z axis (m2/s)"';
'NAX="viscosity for tracers along x axis (m2/s)"';
'NAY="viscosity for tracers along y axis (m2/s)"';
'NAZ="viscosity for tracers along z axis (m2/s)"';
'RI="Richardson number in case of mixing length model"';
'K="turbulent energie for k-epsilon model (J/kg)"';
'EPS="dissipation of turbulent energie (W/kg)"';
'DP="dynamic pressure (multiplied by DT/RHO)"';
'RHO="relative density."'
RUBRIQUE = 'ENTREES-SORTIES, GRAPHIQUES ET LISTING'
RUBRIQUE1 = 'INPUT-OUTPUT, GRAPHICS AND LISTING'
NIVEAU = 1
COMPOSE=','
APPARENCE = 'packing IS XmPACK_COLUMN' ;
    'numColumns IS 23';'LISTE IS EDITABLE'
AIDE = 'Noms des variables que l''utilisateur veut écrire dans
le fichier des resultats.
Le choix des separateurs est libre.
Les possibilites offertes sont les suivantes :
   - U   : vitesse suivant l''axe des x (m/s),
   - V   : vitesse suivant l''axe des y (m/s),
   - W   : vitesse suivant l''axe des z (m/s),
   - TAx : concentrations des traceurs,
   - NUX : viscosite pour U et V suivant l''axe des x (m2/s),
   - NUY : viscosite pour U et V suivant l''axe des y (m2/s),
   - NUZ : viscosite pour U et V suivant l''axe des z (m2/s),
   - NAX : viscosites pour les tr. suivant l''axe des x (m2/s),
   - NAY : viscosites pour les tr. suivant l''axe des y (m2/s),
   - NAZ : viscosites pour les tr. suivant l''axe des z (m2/s),
   - RI  : nombre de Richardson en cas de modele de longueur de melange,
   - K   : energie turbulente du modele k-epsilon (J/kg),
   - EPS : dissipation de l''energie turbulente (W/kg),
   - RHO : densite relative.'
AIDE1 = ''

NOM = 'VARIABLES POUR LES SORTIES GRAPHIQUES 2D'
NOM1 = 'VARIABLES FOR 2D GRAPHIC PRINTOUTS'
TYPE = CARACTERE
INDEX = 3
MNEMO = ''
DEFAUT = 'U,V,H,B'
DEFAUT1 = 'U,V,H,B'
CHOIX = 'U="vitesse moyenne suivant l''axe des x (m/s)"';
        'V="vitesse moyenne suivant l''axe des y (m/s)"';
        'C="celerite (m/s)"';
        'H="hauteur d''eau (m)"';
        'S="cote de surface libre (m)"';
        'B="cote du fond (m)"';
'TA1="TAx concentrations des traceurs, x numero du traceur"';
        'F="nombre de Froude (m)"';
        'Q="debit scalaire (m2/s)"';
        'I="debit suivant x (m2/s)"';
        'J="debit suivant y (m2/s)"';
        'M="norme de la vitesse (m/s)"';
        'X="vent suivant l''axe des x (m/s)"';
        'Y="vent suivant l''axe des y (m/s)"';
        'P="pression atmospherique (Pa)"';
        'W="coefficient de frottement"';
        'RB="cote des fonds non erodables (m)"';
        'FD="epaisseur des depots frais (m)"';
        'EF="flux d''erosion (kg/m3/s)"';
        'DP="probabilite de depot"';
        'PRIVE1="tableau de travail PRIVE 1"';
        'PRIVE2="tableau de travail PRIVE 2"';
        'PRIVE3="tableau de travail PRIVE 3"';
        'PRIVE4="tableau de travail PRIVE 4"';
        'US="vitesse de frottement"'
CHOIX1 = 'U="depth averaged velocity along x axis (m/s)"';
         'V="depth averaged velocity along y axis (m/s)"';
         'C="celerity (m/s)"';
         'H="water depth (m)"';
         'S="free surface elevation (m)"';
         'B="bottom elevation (m)"';
'TA1="TAx concentrations for tracers, x is the tracer number"';
         'F="Froude number (m)"';
         'Q="scalar discharge (m2/s)"';
         'I="discharge along x (m2/s)"';
         'J="discharge along y (m2/s)"';
         'M="norm of velocity (m/s)"';
         'X="wind along x axis (m/s)"';
         'Y="wind along y axis (m/s)"';
         'P="atmospheric pressure (Pa)"';
         'W="friction coefficient"';
         'RB="non erodable bottom elevation (m)"';
         'FD="thickness of the fresh deposits (m)"';
         'EF="erosion rate (kg/m3/s)"';
         'DP="probability of deposition"';
         'PRIVE1="work array PRIVE 1"';
         'PRIVE2="work array PRIVE 2"';
         'PRIVE3="work array PRIVE 3"';
         'PRIVE4="work array PRIVE 4"';
         'US="friction velocity"'
RUBRIQUE = 'ENTREES-SORTIES, GRAPHIQUES ET LISTING'
RUBRIQUE1 = 'INPUT-OUTPUT, GRAPHICS AND LISTING'
NIVEAU = 1
COMPOSE=','
AIDE = 'Noms des variables que l''utilisateur veut ecrire dans
le fichier des resultats.
Chaque variable est representee par une lettre.
Le choix des separateurs est libre.
Les possibilites offertes sont les suivantes :
        U="vitesse moyenne suivant l''axe des x (m/s)"
        V="vitesse moyenne suivant l''axe des y (m/s)"
        C="celerite (m/s)"
        H="hauteur d''eau (m)"
        S="cote de surface libre (m)"
        B="cote du fond (m)"
        F="nombre de Froude (m)"
        Q="debit scalaire (m2/s)"
        I="debit suivant x (m2/s)"
        J="debit suivant y (m2/s)"
        M="norme de la vitesse (m/s)"
        X="vent suivant l''axe des x (m/s)"
        Y="vent suivant l''axe des y (m/s)"
        P="pression atmospherique (Pa)"
        W="coefficient de frottement"
        RB="cote des fonds non erodables (m)"
        FD="epaisseur des depots frais (m)"
        EF="flux d''erosion (kg/m3/s)"
        DP="probabilite de depot"
        PRIVE1="tableau de travail PRIVE 1"
        PRIVE2="tableau de travail PRIVE 2"
        PRIVE3="tableau de travail PRIVE 3"
        PRIVE4="tableau de travail PRIVE 4"
        US="vitesse de frottement"'
AIDE1 = 'Names of variables that may be written in the
2D result file.
Every variable is represented by a group of letters with
any separator between them , ; or blank
possibilities are the following:
         U="depth averaged velocity along x axis (m/s)"
         V="depth averaged velocity along y axis (m/s)"
         C="celerity (m/s)"
         H="water depth (m)"
         S="free surface elevation (m)"
         B="bottom elevation (m)"
         F="Froude number (m)"
         Q="scalar discharge (m2/s)"
         I="discharge along x (m2/s)"
         J="discharge along y (m2/s)"
         M="norm of velocity (m/s)"
         X="wind along x axis (m/s)"
         Y="wind along y axis (m/s)"
         P="atmospheric pressure (Pa)"
         W="friction coefficient"
         RB="non erodable bottom elevation (m)"
         FD="thickness of the fresh deposits (m)"
         EF="erosion rate (kg/m3/s)"
         DP="probability of deposition"
         PRIVE1="work array PRIVE 1"
         PRIVE2="work array PRIVE 2"
         PRIVE3="work array PRIVE 3"
         PRIVE4="work array PRIVE 4"
         US="friction velocity"'

NOM = 'USER CRAY'
NOM1 = 'USER ON CRAY'
TYPE = CARACTERE
INDEX = 4
MNEMO = ''
TAILLE = 0
DEFAUT = ' '
DEFAUT1 = ' '
RUBRIQUE = 'ENTREES-SORTIES, GENERALITES';'ENVIRONNEMENT'
RUBRIQUE1 = 'INPUT-OUTPUT, INFORMATION';'COMPUTATION ENVIRONMENT'
NIVEAU = 2
COMPORT = 
'Foreground ("ENTREES-SORTIES, GENERALITES*ENVIRONNEMENT")
IS BRUT (red)'
AIDE = 'Userid CRAY de l''utilisateur.'
AIDE1 = 'User''s identity on CRAY.'

NOM = 'MOT DE PASSE CRAY'
NOM1 = 'PASSWORD ON CRAY'
TYPE = CARACTERE
INDEX = 5
MNEMO = ''
TAILLE = 0
DEFAUT = ' '
DEFAUT1 = ' '
RUBRIQUE = 'ENTREES-SORTIES, GENERALITES';'ENVIRONNEMENT'
RUBRIQUE1 = 'INPUT-OUTPUT, INFORMATION';'COMPUTATION ENVIRONMENT'
NIVEAU = 2
AIDE = 'Mot de passe associé à l''USER CRAY.'
AIDE1 = 'Password related to USER CRAY.'

NOM = 'FICHIER DE GEOMETRIE'
NOM1 = 'GEOMETRY FILE'
TYPE = CARACTERE
INDEX = 6
MNEMO = 'T3D_FILES(T3DGEO)%NAME'
TAILLE = 0
SUBMIT = 'T3DGEO-READ-01;T3DGEO;OBLIG;BIN;LIT;SELAFIN-GEOM'
DEFAUT = ' '
DEFAUT1 = ' '
RUBRIQUE = 'ENTREES-SORTIES, FICHIERS';'NOMS'
RUBRIQUE1 = 'INPUT-OUTPUT, FILES';'NAMES'
NIVEAU = 1
COMPORT =
'Foreground ("ENTREES-SORTIES, FICHIERS*NOMS")
IS BRUT (red)'
AIDE = 'Nom du fichier contenant le maillage du calcul à réaliser.'
AIDE1 = 'Name of the file containing the mesh. This file may also
contain the topography and the friction coefficients.'

NOM = 'FICHIER FORTRAN'
NOM1 = 'FORTRAN FILE'
TYPE = CARACTERE
INDEX = 7
MNEMO = ''
TAILLE = 0
SUBMIT = 'INUTILE;t3dfort.f;FACUL;ASC;LIT;FORTRAN'
DEFAUT = 'DEFAUT'
DEFAUT1 = 'DEFAUT'
RUBRIQUE = 'ENTREES-SORTIES, FICHIERS';'NOMS'
RUBRIQUE1 = 'INPUT-OUTPUT, FILES';'NAMES'
NIVEAU = 1
AIDE = 'Nom du fichier FORTRAN à soumettre.'
AIDE1 = 'Name of FORTRAN file to be submitted.'

NOM = 'FICHIER DES PARAMETRES'
NOM1 = 'STEERING FILE'
TYPE = CARACTERE
INDEX = 8
MNEMO = ''
TAILLE = 0
SUBMIT = 'INUTILE;T3DCAS;OBLIG;ASC;LIT;CAS'
DEFAUT = ' '
DEFAUT1 = ' '
RUBRIQUE = 'ENTREES-SORTIES, FICHIERS';'NOMS'
RUBRIQUE1 = 'INPUT-OUTPUT, FILES';'NAMES'
NIVEAU = 1
AIDE = 'Nom du fichier contenant les paramètres du calcul à réaliser.'
AIDE1 = 'Name of the file containing the parameters of the computation
Written by the user.'

NOM = 'FICHIER DES CONDITIONS AUX LIMITES'
NOM1 = 'BOUNDARY CONDITIONS FILE'
TYPE = CARACTERE
INDEX = 9
MNEMO = 'T3D_FILES(T3DLIM)%NAME'
TAILLE = 0
SUBMIT = 'T3DLIM-READ-07;T3DCLI;OBLIG;ASC;LIT;CONLIM'
DEFAUT = ' '
DEFAUT1 = ' '
RUBRIQUE = 'ENTREES-SORTIES, FICHIERS';'NOMS'
RUBRIQUE1 = 'INPUT-OUTPUT, FILES';'NAMES'
NIVEAU = 1
AIDE = 'Nom du fichier contenant les types de conditions aux limites.
Ce fichier est rempli de façon automatique par le mailleur au moyen de
couleurs affectées aux noeuds des frontières du domaine de calcul.'
AIDE1 = 'Name of the file containing the types of boundary conditions.
This file is filled automatically by the mesh generator through
through colourss that are assigned to the boundary nodes.'

NOM = 'FICHIER DU CALCUL PRECEDENT'
NOM1 = 'PREVIOUS COMPUTATION FILE'
TYPE = CARACTERE
INDEX = 10
MNEMO = 'T3D_FILES(T3DPRE)%NAME'
TAILLE = 0
SUBMIT = 'T3DPRE-READ-04;T3DPRE;FACUL;BIN;LIT;SELAFIN'
DEFAUT = ' '
DEFAUT1 = ' '
RUBRIQUE = 'ENTREES-SORTIES, FICHIERS';'NOMS'
RUBRIQUE1 = 'INPUT-OUTPUT, FILES';'NAMES'
NIVEAU = 1
AIDE = 'Nom d''un fichier contenant les résultats d''un calcul précédent
réalisé sur le meme maillage et dont le dernier pas de temps enregistré
va fournir les conditions initiales pour une suite de de calcul.'
AIDE1 = 'Name of a file containing the results of an earlier computation
which was made on the same mesh. The last recorded time step will provid
the initial conditions for the new computation.'

NOM = 'FICHIER DES RESULTATS 3D'
NOM1 = '3D RESULT FILE'
TYPE = CARACTERE
INDEX = 11
MNEMO = 'T3D_FILES(T3DRES)%NAME'
TAILLE = 0
SUBMIT = 'T3DRES-READWRITE-08;T3DRES;FACUL;BIN;ECR;SELAFIN'
DEFAUT = ' '
DEFAUT1 = ' '
RUBRIQUE = 'ENTREES-SORTIES, FICHIERS';'NOMS'
RUBRIQUE1 = 'INPUT-OUTPUT, FILES';'NAMES'
NIVEAU = 1
AIDE = 'Nom du fichier dans lequel seront écrits les résultats du calcul
avec la périodicité donnée par le mot clé ''PERIODE POUR LES SORTIES
GRAPHIQUES''.'
AIDE1 = 'Name of the file into which the computation results shall be
written,
the periodicity being given by the key-word:
GRAPHIC PRINTOUT PERIOD.'

NOM = 'NUMERO DE VERSION'
NOM1 = 'RELEASE'
TYPE = CARACTERE
INDEX = 12
MNEMO = ''
TAILLE = 0
DEFAUT = 'V6P1'
DEFAUT1 = 'V6P1'
RUBRIQUE = 'ENTREES-SORTIES, GENERALITES';'CALCUL'
RUBRIQUE1 = 'INPUT-OUTPUT, INFORMATION';'COMPUTATIONAL INFORMATION'
NIVEAU = 1
AIDE = 'Numéro de version des bibliothèques utilisées par TELEMAC.
Si ce nom commence par D il s''agit de l''option Debug (exemple DV2P2)
Si ce nom commence par F il s''agit de l''option Flowtrace'
AIDE1 = ''

NOM = 'NUMERO DE VERSION DE TELEMAC-2D'
NOM1 = 'TELEMAC-2D RELEASE'
TYPE = CARACTERE
INDEX = 13
MNEMO = ''
TAILLE = 0
DEFAUT = 'V5P8'
DEFAUT1 = 'V5P8'
RUBRIQUE = 'ENTREES-SORTIES, GENERALITES';'CALCUL'
RUBRIQUE1 = 'INPUT-OUTPUT, INFORMATION';'COMPUTATIONAL INFORMATION'
NIVEAU = 1
AIDE = 'Numéro de version des bibliothèques utilisées par TELEMAC.
Si ce nom commence par D il s''agit de l''option Debug (exemple DV3P2)
Si ce nom commence par F il s''agit de l''option Flowtrace'
AIDE1 = ''

NOM = 'TEMPS MACHINE CRAY'
NOM1 = 'CPU TIME ON CRAY'
TYPE = CARACTERE
INDEX = 14
MNEMO = ''
TAILLE = 0
DEFAUT = '10'
DEFAUT1 = '10'
RUBRIQUE = 'ENTREES-SORTIES, GENERALITES';'ENVIRONNEMENT'
RUBRIQUE1 = 'INPUT-OUTPUT, INFORMATION';'COMPUTATIONAL INFORMATION'
NIVEAU = 2
AIDE = 'Temps CPU (en secondes) alloué pour la réalisation du calcul.
Attention; il s''agit bien d''une chaine de caractères.'
AIDE1 = 'C.P.U. time (in seconds) allowed for making the computation.
Please note that this keyword is a string of characters.'

NOM = 'PLACE MEMOIRE CRAY'
NOM1 = 'MEMORY SPACE ON CRAY'
TYPE = CARACTERE
INDEX = 15
MNEMO = ''
TAILLE = 0
DEFAUT = '1500000W'
DEFAUT1 = '1500000W'
RUBRIQUE = 'ENTREES-SORTIES, GENERALITES';'ENVIRONNEMENT'
RUBRIQUE1 = 'INPUT-OUTPUT, INFORMATION';'COMPUTATIONAL INFORMATION'
NIVEAU = 2
AIDE = 'Place mémoire (en mots de 8 octets) réservée en machine pour la
réalisation du calcul.'
AIDE1 = 'Storage capacity (in words of 8 bytes) reserved in machine for
making the computation.'

NOM = 'FICHIER DES FONDS'
NOM1 = 'BOTTOM TOPOGRAPHY FILE'
TYPE = CARACTERE
INDEX = 16
MNEMO = 'T3D_FILES(T3DFON)%NAME'
TAILLE = 0
SUBMIT = 'T3DFON-READ-23;T3DFON;FACUL;ASC;LIT;SCAL'
DEFAUT = ' '
DEFAUT1 = ' '
RUBRIQUE = 'ENTREES-SORTIES, FICHIERS';'NOMS'
RUBRIQUE1 = 'INPUT-OUTPUT, FILES';'NAMES'
NIVEAU = 1
AIDE = 'Nom du fichier éventuel contenant la bathymétrie associée au
maillage.
Si ce mot-clé est utilisé; c''est cette bathymétrie qui sera utilisée
pour le calcul.'
AIDE1 = 'Name of the possible file containing the bathymetric data.
Where this keyword is used, these bathymetric data shall be used in
the computation.'

NOM = 'FICHIER POUR SCOPE'
NOM1 = 'FILE FOR SCOPE'
TYPE = CARACTERE
INDEX = 17
MNEMO = 'T3D_FILES(T3DSCO)%NAME'
TAILLE = 0
SUBMIT = 'T3DSCO-WRITE-32;T3DSCO;FACUL;ASC;ECR;PARAL'
DEFAUT = ' '
DEFAUT1 = ' '
RUBRIQUE = 'ENTREES-SORTIES, FICHIERS';'NOMS'
RUBRIQUE1 = 'INPUT-OUTPUT, FILES';'NAMES'
NIVEAU = 1
AIDE = 'Nom du fichier éventuel pour scope.'
AIDE1 = ''

NOM = 'FICHIER DES RESULTATS 2D'
NOM1 = '2D RESULT FILE'
TYPE = CARACTERE
INDEX = 18
MNEMO = 'T3D_FILES(T3DHYD)%NAME'
TAILLE = 0
SUBMIT = 'T3DHYD-WRITE-18;T3DHYD;FACUL;BIN;ECR;SELAFIN'
DEFAUT = ' '
DEFAUT1 = ' '
RUBRIQUE = 'ENTREES-SORTIES, FICHIERS';'NOMS'
RUBRIQUE1 = 'INPUT-OUTPUT, FILES';'NAMES'
NIVEAU = 1
AIDE = 'Nom du fichier dans lequel seront écrits les résultats du calcul
avec la périodicité donnée par le mot clé ''PERIODE POUR LES SORTIES
GRAPHIQUES''.'
AIDE1 = ''

NOM = 'FICHIER DE DONNEES FORMATE 1'
NOM1 = 'FORMATTED DATA FILE 1'
TYPE = CARACTERE
INDEX = 19
MNEMO = 'T3D_FILES(T3DFO1)%NAME'
TAILLE = 0
SUBMIT = 'T3DFO1-READ-26;T3DFO1;FACUL;ASC;LIT;SCAL'
DEFAUT = ' '
DEFAUT1 = ' '
RUBRIQUE = 'ENTREES-SORTIES, FICHIERS';'NOMS'
RUBRIQUE1 = 'INPUT-OUTPUT, FILES';'NAMES'
NIVEAU = 1
AIDE = 'Fichier de donnees formaté mis a la disposition de
l''utilisateur.
Les donnees de ce fichier seront a lire sur le canal 60.'
AIDE1 = ''

NOM = 'FICHIER DE DONNEES FORMATE 2'
NOM1 = 'FORMATTED DATA FILE 2'
TYPE = CARACTERE
INDEX = 20
MNEMO = 'T3D_FILES(T3DFO2)%NAME'
TAILLE = 0
SUBMIT = 'T3DFO2-READ-27;T3DFO2;FACUL;ASC;LIT;SCAL'
DEFAUT = ' '
DEFAUT1 = ' '
RUBRIQUE = 'ENTREES-SORTIES, FICHIERS';'NOMS'
RUBRIQUE1 = 'INPUT-OUTPUT, FILES';'NAMES'
NIVEAU = 1
AIDE = 'Fichier de donnees formate mis a la disposition de
l''utilisateur'
AIDE1 = 'Formatted data file available to the user'

NOM = 'FICHIER DE DONNEES BINAIRE 1'
NOM1 = 'BINARY DATA FILE 1'
TYPE = CARACTERE
INDEX = 21
MNEMO = 'T3D_FILES(T3DBI1)%NAME'
TAILLE = 0
SUBMIT = 'T3DBI1-READ-24;T3DBI1;FACUL;BIN;LIT;SELAFIN'
DEFAUT = ' '
DEFAUT1 = ' '
RUBRIQUE = 'ENTREES-SORTIES, FICHIERS';'NOMS'
RUBRIQUE1 = 'INPUT-OUTPUT, FILES';'NAMES'
NIVEAU = 1
AIDE = 'Fichier de donnees code en binaire mis a la disposition
de l''utilisateur. Format Selafin, utilise en cas 
de suite 2D et de flotteurs'
AIDE1 = 'Data file in binary mode, Selafin format, 
used in case of 2D continuation and buoys'

NOM = 'FICHIER DE DONNEES BINAIRE 2'
NOM1 = 'BINARY DATA FILE 2'
TYPE = CARACTERE
INDEX = 22
MNEMO = 'T3D_FILES(T3DBI2)%NAME'
TAILLE = 0
SUBMIT = 'T3DBI2-READ-25;T3DBI2;FACUL;BIN;LIT;SCAL'
DEFAUT = ' '
DEFAUT1 = ' '
RUBRIQUE = 'ENTREES-SORTIES, FICHIERS';'NOMS'
RUBRIQUE1 = 'INPUT-OUTPUT, FILES';'NAMES'
NIVEAU = 1
AIDE = 'Fichier de donnees code en binaire mis a la disposition
de l''utilisateur.'
AIDE1 = 'Binary data file'

NOM = 'FACTURATION'
NOM1 = 'PRIORITY'
TYPE = CARACTERE
INDEX = 23
MNEMO = ''
TAILLE = 0
DEFAUT = 'JOUR'
DEFAUT1 = 'JOUR'
CHOIX = 'JOUR';
        'NUIT';
        'WEEK-END'
CHOIX1 = 'JOUR';
         'NUIT';
         'WEEK-END'
RUBRIQUE = 'ENTREES-SORTIES, GENERALITES';'ENVIRONNEMENT'
RUBRIQUE1 = 'INPUT-OUTPUT, INFORMATION';'COMPUTATION ENVIRONMENT'
NIVEAU = 2
AIDE = 'Choix de l''instant de lancement.'
AIDE1 = ''

NOM = 'BINAIRE DU FICHIER DE GEOMETRIE'
NOM1 = 'GEOMETRY FILE BINARY'
TYPE = CARACTERE
INDEX = 24
MNEMO = ''
TAILLE = 0
DEFAUT = 'STD'
DEFAUT1 = 'STD'
CHOIX = 'STD';
        'IBM';
        'I3E'
CHOIX1 = 'STD';
         'IBM';
         'I3E'
RUBRIQUE = 'ENTREES-SORTIES, FICHIERS';'TYPE DU BINAIRE'
RUBRIQUE1 = 'INPUT-OUTPUT, FILES';'TYPE OF BINARY'
NIVEAU = 3
COMPORT = 
'Foreground ("ENTREES-SORTIES, FICHIERS*TYPE DU BINAIRE")
IS BRUT (red)'
AIDE = 'Type du binaire utilisé pour l''écriture du fichier
de géométrie .
Ce type dépend de la machine sur laquelle le fichier a été
généré.
Les valeurs possibles sont :
- IBM; pour un fichier cree sur IBM;
- I3E; pour un fichier cree sur HP;
- STD;
Il s''agit alors d''ordres READ et WRITE normaux.'
AIDE1 = 'Binary file type used for writing the geometry file.
This type depends on the machine on which the file was generated.
The possible values are as follows:
    IBM, for a file on an IBM (from a CRAY)
    I3E, for a file on an HP (from a CRAY)
    STD, binary type of the machine on which the user is working.
In that case, normal READ and WRITE commands are used'

NOM = 'BINAIRE DU FICHIER DES RESULTATS 3D'
NOM1 = '3D RESULT FILE BINARY'
TYPE = CARACTERE
INDEX = 25
MNEMO = ''
TAILLE = 0
DEFAUT = 'STD'
DEFAUT1 = 'STD'
CHOIX = 'STD';
        'IBM';
        'I3E'
CHOIX1 = 'STD';
         'IBM';
         'I3E'
RUBRIQUE = 'ENTREES-SORTIES, FICHIERS';'TYPE DU BINAIRE'
RUBRIQUE1 = 'INPUT-OUTPUT, FILES';'TYPE OF BINARY'
NIVEAU = 3
AIDE = 'Type du binaire utilisé pour l''écriture du fichier des résultat
Ce type dépend de la machine sur laquelle le fichier a été généré.
Les valeurs possibles sont les memes que pour le fichier de géométrie'
AIDE1 = 'Binary file type used for writing the results file.
This type depends on the machine on which the file was generated.
The possible values are the same as for the geometry file.'

NOM = 'BINAIRE DU FICHIER DU CALCUL PRECEDENT'
NOM1 = 'PREVIOUS COMPUTATION FILE BINARY'
TYPE = CARACTERE
INDEX = 26
MNEMO = ''
TAILLE = 0
DEFAUT = 'STD'
DEFAUT1 = 'STD'
CHOIX = 'STD';
        'IBM';
        'I3E'
CHOIX1 = 'STD';
         'IBM';
         'I3E'
RUBRIQUE = 'ENTREES-SORTIES, FICHIERS';'TYPE DU BINAIRE'
RUBRIQUE1 = 'INPUT-OUTPUT, FILES';'TYPE OF BINARY'
NIVEAU = 3
AIDE = 'Type du binaire utlisé pour l''écriture du fichier des résultats
du calcul précédent.
Ce type dépend de la machine sur laquelle le fichier a été généré.
Les valeurs possibles sont les memes que pour le fichier de géométrie'
AIDE1 = 'Binary file type used for writing the previous computation
results file.
This type depends on the machine on which the file was generated.
The possible values are the same as for the geometry file.'

NOM = 'BINAIRE DU FICHIER DES RESULTATS 2D'
NOM1 = '2D RESULT FILE BINARY'
TYPE = CARACTERE
INDEX = 27
MNEMO = ''
TAILLE = 0
DEFAUT = 'STD'
DEFAUT1 = 'STD'
CHOIX = 'STD';
        'IBM';
        'I3E'
CHOIX1 = 'STD';
         'IBM';
         'I3E'
RUBRIQUE = 'ENTREES-SORTIES, FICHIERS';'TYPE DU BINAIRE'
RUBRIQUE1 = 'INPUT-OUTPUT, FILES';'TYPE OF BINARY'
NIVEAU = 3
AIDE = 'Type du binaire utilisé pour l''écriture du fichier des résultat
Ce type dépend de la machine sur laquelle le fichier a été généré.
Les valeurs possibles sont les memes que pour le fichier de géométrie'
AIDE1 = 'Binary file type used for writing the results file.
This type depends on the machine on which the file was generated.
The possible values are the same as for the geometry file.'

NOM = 'NUMERO DE COMPTE'
NOM1 = 'ACCOUNT NUMBER'
TYPE = CARACTERE
INDEX = 28
MNEMO = ''
TAILLE = 0
DEFAUT = ' '
DEFAUT1 = ' '
RUBRIQUE = 'ENTREES-SORTIES, GENERALITES';'ENVIRONNEMENT'
RUBRIQUE1 = 'INPUT-OUTPUT, INFORMATION';'COMPUTATION  ENVIRONMENT'
NIVEAU = 2
AIDE = 'Numero du compte calcul sur lequel sera impute le cout
du calcul.'
AIDE1 = 'Account number to which the cost of computation shall be
charged.'

NOM = 'SUITE DE CALCUL'
NOM1 = 'COMPUTATION CONTINUED'
TYPE = LOGIQUE
INDEX = 1
MNEMO = ''
TAILLE = 0
DEFAUT = NON
DEFAUT1 = NO
RUBRIQUE = 'ENTREES-SORTIES, GENERALITES';'CALCUL'
RUBRIQUE1 = 'INPUT-OUTPUT, INFORMATION';'COMPUTATIONAL INFORMATION'
NIVEAU = 1
AIDE = 'Détermine si le calcul en cours est indépendant de tout autre
résultat ou est une reprise effectuée à partir du résultat d''un calcul
précédent.
NON : Il s''agit du premier passage pour ce calcul et il est nécessaire
de définir un jeu complet de conditions initiales
OUI : Il s''agit d''une reprise de calcul :
les conditions initiales sont constituées par le dernier pas de
temps du ''FICHIER DU CALCUL PRECEDENT'' du fichier des paramétres
utilisé pour soumettre le calcul.
Par contre, l''ensemble des données du fichier des paramètres
peuvent etre redéfinies ; ce qui offre la possibilité de changer
par exemple, le pas de temps, le modèle de turbulence, le
frottement, d''ajouter ou retirer un traceur ...
De meme, il est nécessaire de définir des conditions aux limites
(sous-programme BORD ou valeurs placées dans le fichier des
paramètres), qui peuvent également etre modifiées.'
AIDE1 = 'Determines whether the computation under way is independent
result or is following an earlier result.
NO: It is the first run for this computation and a whole set of
initial conditions should be defined.
YES: It follows a former computation:
the initial conditions consist in the last time step of the
PREVIOUS COMPUTATION FILE in the steering file used for submitting
the computation.
All the data from the steering file may be defined once again, which
provides an opportunity to change, for example, the time step,
the turbulence model, the friction, to add or remove a tracer...
It is also possible to define new boundary conditions.'

NOM = 'ETAPE DE CONVECTION'
NOM1 = 'ADVECTION STEP'
TYPE = LOGIQUE
INDEX = 2
MNEMO = 'CONVEC'
TAILLE = 0
DEFAUT = OUI
DEFAUT1 = YES
RUBRIQUE = 'EQUATIONS, CONVECTION'
RUBRIQUE1 = 'EQUATIONS, ADVECTION'
NIVEAU = 1
COMPORT = 
'Foreground ("EQUATIONS, CONVECTION")
IS BRUT (brown)'
AIDE = 'Prise en compte ou non des termes de convection.
En cas de réponse positive;
on peut encore supprimer certains termes de convection avec
les mots-clés SCHEMA POUR LA CONVECTION DES ...'
AIDE1 = ''

NOM = 'ETAPE DE DIFFUSION'
NOM1 = 'DIFFUSION STEP'
TYPE = LOGIQUE
INDEX = 3
MNEMO = ''
TAILLE = 0
DEFAUT = OUI
DEFAUT1 = YES
RUBRIQUE = 'EQUATIONS, DIFFUSION'
RUBRIQUE1 = 'EQUATIONS, DIFFUSION'
NIVEAU = 1
COMPORT = 
'Foreground ("EQUATIONS, DIFFUSION")
IS BRUT (brown)'
AIDE = 'Prise en compte ou non des termes de diffusion.
En cas de réponse positive;
on peut encore supprimer certains termes de diffusion avec
les mots-clés SCHEMA POUR LA DIFFUSION DES ...'
AIDE1 = ''

NOM = 'ETAPE DE PROPAGATION'
NOM1 = 'PROPAGATION STEP'
TYPE = LOGIQUE
INDEX = 4
MNEMO = ''
TAILLE = 0
DEFAUT = OUI
DEFAUT1 = YES
RUBRIQUE = 'EQUATIONS, PROPAGATION'
RUBRIQUE1 = 'EQUATIONS, PROPAGATION'
NIVEAU = 1
COMPORT = 
'Foreground ("EQUATIONS, PROPAGATION")
IS BRUT (brown)'
AIDE = 'Prise en compte ou non des termes de propagation.
Cette etape doit actuellement etre effectuee.'
AIDE1 = ''

NOM = 'CORIOLIS'
NOM1 = 'CORIOLIS'
TYPE = LOGIQUE
INDEX = 5
MNEMO = ''
TAILLE = 0
DEFAUT = NON
DEFAUT1 = NO
RUBRIQUE = 'EQUATIONS';'CORIOLIS'
RUBRIQUE1 = 'EQUATIONS';'CORIOLIS'
COMPORT = 
'Affichage ("EQUATIONS*CORIOLIS")
IS VALEUR ()';
'Foreground ("EQUATIONS*CORIOLIS")
IS BRUT (brown)'
NIVEAU = 1
AIDE = 'Prise en compte ou non de la force de Coriolis.'
AIDE1 = 'The Coriolis force is taken into account or ignored.'

NOM = 'VENT'
NOM1 = 'WIND'
TYPE = LOGIQUE
INDEX = 6
MNEMO = ''
TAILLE = 0
DEFAUT = NON
DEFAUT1 = NO
RUBRIQUE = 'EQUATIONS';'VENT'
[...]
AIDE = 'Valeur en metres, utilise pour eviter les trops grands nombres, transmis
dans le format Selafin mais pas d''autre traitement pour l''instant'
AIDE1 = 'Value in metres, used to avoid large real numbers, 
added in Selafin format, but so far no other treatment'
/
/---------------------------------------------------------------------
/
/  VERSION 5.8 (SAVE 2 FILES FOR DELWAQ PLACED ABOVE IN 5.7)
/
/---------------------------------------------------------------------
/
NOM = 'SALINITE POUR DELWAQ'
NOM1 = 'SALINITY FOR DELWAQ'
TYPE = LOGIQUE
INDEX = 77
MNEMO = 'SALI_DEL'
DEFAUT = NON
DEFAUT1 = NO
NIVEAU = 1
AIDE = 'Decide de la sortie de la salinite pour Delwaq'
AIDE1 = 'Triggers output of salinity for Delwaq'
/
NOM = 'TEMPERATURE POUR DELWAQ'
NOM1 = 'TEMPERATURE FOR DELWAQ'
TYPE = LOGIQUE
INDEX = 78
MNEMO = 'TEMP_DEL'
DEFAUT = NON
DEFAUT1 = NO
NIVEAU = 1
AIDE = 'Decide de la sortie de la temperature pour Delwaq'
AIDE1 = 'Triggers output of temperature for Delwaq'
/
NOM = 'VITESSE POUR DELWAQ'
NOM1 = 'VELOCITY FOR DELWAQ'
TYPE = LOGIQUE
INDEX = 79
MNEMO = 'VELO_DEL'
DEFAUT = NON
DEFAUT1 = NO
NIVEAU = 1
AIDE = 'Decide de la sortie de la vitesse pour Delwaq'
AIDE1 = 'Triggers output of velocity for Delwaq'
/
NOM = 'DIFFUSION POUR DELWAQ'
NOM1 = 'DIFFUSION FOR DELWAQ'
TYPE = LOGIQUE
INDEX = 80
MNEMO = 'DIFF_DEL'
DEFAUT = NON
DEFAUT1 = NO
NIVEAU = 1
AIDE = 'Decide de la sortie de la diffusion pour Delwaq'
AIDE1 = 'Triggers output of diffusion for Delwaq'
/
/  VERSION 5.9
/
NOM = 'COURBES DE TARAGE'
NOM1 = 'STAGE-DISCHARGE CURVES'
TYPE = ENTIER
INDEX = 103
MNEMO = 'STA_DIS_CURVES'
TAILLE = 10
RUBRIQUE = 'CONDITIONS LIMITES'
RUBRIQUE1 = 'BOUNDARY CONDITIONS'
NIVEAU = 1
AIDE = 'Indique si une courbe de tarage doit etre utilisee
pour une frontiere 0:non 1:Z(Q) 2: Q(Z)'
AIDE1 = 'Says if a discharge-elevation curve must be used
for a given boundary :NO 1:Z(Q) 2: Q(Z)'
/
NOM = 'FICHIER DES COURBES DE TARAGE'
NOM1 = 'STAGE-DISCHARGE CURVES FILE'
TYPE = CARACTERE
INDEX = 72
MNEMO = 'T3D_FILES(T3DPAR)%NAME'
TAILLE = 0
SUBMIT = 'T3DPAR-READ-11;T3DPAR;FACUL;ASC;LIT;PARAL'
DEFAUT = ' '
DEFAUT1 = ' '
RUBRIQUE = 'ENTREES-SORTIES, FICHIERS';'NOMS'
RUBRIQUE1 = 'INPUT-OUTPUT, FILES';'NAMES'
COMPORT =
'Foreground ("ENTREES-SORTIES, FICHIERS*NOMS")
IS VALEUR (red)'
NIVEAU = 1
APPARENCE = 'LISTE IS FICHIER'
AIDE = 'Nom du fichier contenant les courbes de tarage'
AIDE1 = 'Name of the file containing stage-discharge curves'
/
NOM = 'FICHIER DES SOURCES'
NOM1 = 'SOURCES FILE'
TYPE = CARACTERE
INDEX = 73
MNEMO = 'T3D_FILES(T3DVEF)%NAME'
TAILLE = 0
SUBMIT = 'T3DVEF-READ-10;T3DVEF;FACUL;ASC;LIT;PARAL'
DEFAUT = ' '
DEFAUT1 = ' '
RUBRIQUE = 'ENTREES-SORTIES, FICHIERS';'NOMS'
RUBRIQUE1 = 'INPUT-OUTPUT, FILES';'NAMES'
COMPORT =
'Foreground ("ENTREES-SORTIES, FICHIERS*NOMS")
IS VALEUR (red)'
NIVEAU = 1
APPARENCE = 'LISTE IS FICHIER'
AIDE = 'Nom du fichier contenant les informations variables
en temps des sources'
AIDE1 = 'Name of the file containing time-dependent
information on sources'
/
NOM = 'FICHIER DE RESULTATS BINAIRE'
NOM1 = 'BINARY RESULTS FILE'
TYPE = CARACTERE
INDEX = 74
MNEMO = 'T3D_FILES(T3DRBI)%NAME'
SUBMIT = 'T3DRBI-WRITE-28;T3DRBI;FACUL;BIN;ECR;PARAL'
DEFAUT = ' '
DEFAUT1 = ' '
APPARENCE = 'LISTE IS FICHIER'
RUBRIQUE = 'ENTREES-SORTIES, FICHIERS';'NOMS'
RUBRIQUE1 = 'INPUT-OUTPUT, FILES';'NAMES'
NIVEAU = 1
AIDE = 'Fichier de resultats code en binaire mis a la disposition
de l''utilisateur. Les resultats a placer dans ce fichier seront a
ecrire sur le canal 28.'
AIDE1 = 'Additional binary-coded result file made available
to the user. The results to be entered into this file shall be written
on channel 28.'

NOM = 'FICHIER DE RESULTATS FORMATE'
NOM1 = 'FORMATTED RESULTS FILE'
TYPE = CARACTERE
INDEX = 75
MNEMO = 'T3D_FILES(T3DRFO)%NAME'
SUBMIT = 'T3DRFO-WRITE-29;T3DRFO;FACUL;ASC;ECR;PARAL'
DEFAUT = ' '
DEFAUT1 = ' '
NIVEAU = 1
APPARENCE = 'LISTE IS FICHIER'
RUBRIQUE = 'ENTREES-SORTIES, FICHIERS';'NOMS'
RUBRIQUE1 = 'INPUT-OUTPUT, FILES';'NAMES'
AIDE = 'Fichier de resultats formate mis a la disposition de
l''utilisateur.
Les resultats a placer dans ce fichier seront a ecrire sur
le canal 29.'
AIDE1 = 'Formatted file of results made available to the user.
The results to be entered into this file shall be written
on channel 29.'

NOM  = 'DEBUGGER'
NOM1 = 'DEBUGGER'
TYPE = INTEGER
INDEX = 104
MNEMO = 'DEBUG'
TAILLE = 0
DEFAUT = 0
DEFAUT1 = 0
RUBRIQUE = 'PARAMETRES NUMERIQUES'
RUBRIQUE1 = 'NUMERICAL PARAMETERS'
NIVEAU = 1
AIDE= 'Pour imprimer la sequence des appels, mettre 1'
AIDE1 = 'If 1, calls of subroutines will be printed in the listing'

NOM = 'PROFONDEUR LIMITE POUR LE VENT'
NOM1 = 'THRESHOLD DEPTH FOR WIND'
TYPE = REEL
INDEX = 98
MNEMO = 'HWIND'
DEFAUT = 1.
DEFAUT1 = 1.
NIVEAU = 1
AIDE = 'Retire la force due au vent dans les petites profondeurs'
AIDE1 = 'Wind is not taken into account for small depths'

NOM = 'COURANTS DE HOULE'
NOM1 = 'WAVE DRIVEN CURRENTS'
TYPE = LOGIQUE
INDEX = 81
MNEMO = 'COUROU'
TAILLE = 0
DEFAUT = NON
DEFAUT1 = NO
RUBRIQUE = 'PARAMETRES NUMERIQUES';'GENERAL'
RUBRIQUE1 = 'NUMERICAL PARAMETERS';'GENERAL'
NIVEAU = 1
AIDE = 'Active la prise en compte des courants de houle (voir trisou)'
AIDE1 = 'Wave driven currents are taken into account, see trisou. '

NOM = 'NUMERO DE L''ENREGISTREMENT DANS LE FICHIER DE HOULE'
NOM1 = 'RECORD NUMBER IN WAVE FILE'
TYPE = ENTIER
INDEX = 105
MNEMO = 'NPTH'
TAILLE = 0
DEFAUT = 1
DEFAUT1 = 1
RUBRIQUE = 'PARAMETRES NUMERIQUES';'GENERAL'
RUBRIQUE1 = 'NUMERICAL PARAMETERS';'GENERAL'
NIVEAU = 1
AIDE = 'Numero d enregistrement dans le fichier des courants de houle'
AIDE1 = 'Record number to read in the wave driven currents file'

/
/  VERSION 6.0
/
NOM = 'FORMAT DU FICHIER DE GEOMETRIE'
NOM1 = 'GEOMETRY FILE FORMAT'
TYPE = CARACTERE
INDEX = 29
MNEMO = 'T3D_FILES(T3DGEO)%FMT'
DEFAUT = 'SERAFIN '
DEFAUT1 = 'SERAFIN '
NIVEAU = 2
CHOIX = 'SERAFIN ';'SERAFIND';'MED     '
RUBRIQUE = 'ENTREES-SORTIES, FICHIERS'
RUBRIQUE1 = 'INPUT-OUTPUT, FILES'
AIDE = 'Format du fichier de geometrie.
Les valeurs possibles sont :
- SERAFIN : format standard simple precision pour Telemac; 
- SERAFIND: format standard double precision pour Telemac;
- MED     : format MED base sur HDF5'
AIDE1 = 'Geometry file format.
Possible values are:
- SERAFIN : classical single precision format in Telemac; 
- SERAFIND: classical double precision format in Telemac;
- MED     : MED format based on HDF5'

NOM = 'FORMAT DU FICHIER DE RESULTATS'
NOM1 = 'RESULTS FILE FORMAT'
TYPE = CARACTERE
INDEX = 30
MNEMO = 'T3D_FILES(T3DRES)%FMT'
DEFAUT = 'SERAFIN '
DEFAUT1 = 'SERAFIN '
CHOIX = 'SERAFIN ';'SERAFIND';'MED     '
NIVEAU = 2
RUBRIQUE = 'ENTREES-SORTIES, FICHIERS'
RUBRIQUE1 = 'INPUT-OUTPUT, FILES'
AIDE = 'Format du fichier de resultats.
Les valeurs possibles sont :
- SERAFIN : format standard simple precision pour Telemac; 
- SERAFIND: format standard double precision pour Telemac;
- MED     : format MED base sur HDF5'
AIDE1 = 'Results file format. Possible values are:
- SERAFIN : classical single precision format in Telemac; 
- SERAFIND: classical double precision format in Telemac;
- MED     : MED format based on HDF5'

NOM = 'FORMAT DU FICHIER DU CALCUL PRECEDENT'
NOM1 = 'PREVIOUS COMPUTATION FILE FORMAT'
TYPE = CARACTERE
INDEX = 31
MNEMO = 'T3D_FILES(T3DPRE)%FMT'
DEFAUT = 'SERAFIN '
DEFAUT1 = 'SERAFIN '
CHOIX = 'SERAFIN ';'SERAFIND';'MED     '
NIVEAU = 2
RUBRIQUE = 'ENTREES-SORTIES, FICHIERS'
RUBRIQUE1 = 'INPUT-OUTPUT, FILES'
AIDE = 'Format du fichier de resultats du calcul precedent.
Les valeurs possibles sont :
- SERAFIN : format standard simple precision pour Telemac; 
- SERAFIND: format standard double precision pour Telemac;
- MED     : format MED base sur HDF5'
AIDE1 = 'Previous computation results file format.
Possible values are:
- SERAFIN : classical single precision format in Telemac; 
- SERAFIND: classical double precision format in Telemac;
- MED     : MED format based on HDF5'

NOM = 'FORMAT DU FICHIER DE REFERENCE'
NOM1 = 'REFERENCE FILE FORMAT'
TYPE = CARACTERE
INDEX = 78
MNEMO = 'T3D_FILES(T3DREF)%FMT'
DEFAUT = 'SERAFIN '
DEFAUT1 = 'SERAFIN '
CHOIX = 'SERAFIN ';'SERAFIND';'MED     '
NIVEAU = 2
RUBRIQUE = 'ENTREES-SORTIES, FICHIERS'
RUBRIQUE1 = 'INPUT-OUTPUT, FILES'
AIDE = 'Format du fichier de resultats du calcul precedent.
Les valeurs possibles sont :
- SERAFIN : format standard simple precision pour Telemac; 
- SERAFIND: format standard double precision pour Telemac;
- MED     : format MED base sur HDF5'
AIDE1 = 'Previous computation results file format.
Possible values are:
- SERAFIN : classical single precision format in Telemac; 
- SERAFIND: classical double precision format in Telemac;
- MED     : MED format based on HDF5'

NOM = 'FORMAT DU FICHIER DE DONNEES BINAIRE 1'
NOM1 = 'BINARY DATA FILE 1 FORMAT'
TYPE = CARACTERE
INDEX = 79
MNEMO = 'T3D_FILES(T3DBI1)%FMT'
DEFAUT = 'SERAFIN '
DEFAUT1 = 'SERAFIN '
CHOIX = 'SERAFIN ';'SERAFIND';'MED     '
NIVEAU = 2
RUBRIQUE = 'ENTREES-SORTIES, FICHIERS'
RUBRIQUE1 = 'INPUT-OUTPUT, FILES'
AIDE = 'Format du fichier de resultats du calcul precedent.
Les valeurs possibles sont :
- SERAFIN : format standard simple precision pour Telemac; 
- SERAFIND: format standard double precision pour Telemac;
- MED     : format MED base sur HDF5'
AIDE1 = 'Previous computation results file format.
Possible values are:
- SERAFIN : classical single precision format in Telemac; 
- SERAFIND: classical double precision format in Telemac;
- MED     : MED format based on HDF5'

NOM  = 'TRAITEMENT DES HAUTEURS NEGATIVES'
NOM1 = 'TREATMENT OF NEGATIVE DEPTHS'
TYPE = INTEGER
INDEX = 106
MNEMO = 'OPT_HNEG'
TAILLE = 0
DEFAUT = 1
DEFAUT1 = 1
RUBRIQUE = 'PARAMETRES NUMERIQUES'
RUBRIQUE1 = 'NUMERICAL PARAMETERS'
NIVEAU = 1
AIDE= 'Seulement avec OPTION DE TRAITEMENT DES BANCS DECOUVRANTS = 1
       0 : pas de traitement 1 : lissage 2 : limitation des flux'
AIDE1 = 'Only with OPTION FOR THE TREATMENT OF TIDAL FLATS=1
       0: no treatment 1:smoothing 2:flux control'

NOM  = 'CONTOURNEMENT DES VOLUMES NULS'
NOM1 = 'BYPASS VOID VOLUMES'
TYPE = LOGIQUE
INDEX = 82
MNEMO = 'BYPASS'
TAILLE = 0
DEFAUT = NON
DEFAUT1 = NO
RUBRIQUE = 'PARAMETRES NUMERIQUES'
RUBRIQUE1 = 'NUMERICAL PARAMETERS'
NIVEAU = 1
AIDE= 'Accelere les schemas de convection distributifs et volumes finis
en cas de bancs decouvrants ou de transformation sigma generalisee'
AIDE1 = 'Will speed-up distributive and finite volumes advection
schemes in case if tidal flats or generalised sigma transformation'
 
NOM  = 'VITESSE PROJETEE SUR LES PAROIS LATERALES SOLIDES'
NOM1 = 'VELOCITY PROJECTED ON SOLID LATERAL BOUNDARIES'
TYPE = LOGIQUE
INDEX = 83
MNEMO = 'VELPROLAT'
TAILLE = 0
DEFAUT = OUI
DEFAUT1 = YES
RUBRIQUE = 'PARAMETRES NUMERIQUES'
RUBRIQUE1 = 'NUMERICAL PARAMETERS'
NIVEAU = 1
AIDE= 'U.N = 0 sur les parois laterales solides est force 
en fin de boucle en temps'
AIDE1 = 'Will ensure U.N = 0 on solid lateral boundaries by a projection 
at the end of time loop'

NOM  = 'VITESSE PROJETEE SUR LE FOND'
NOM1 = 'VELOCITY PROJECTED ON BOTTOM'
TYPE = LOGIQUE
INDEX = 84
MNEMO = 'VELPROBOT'
TAILLE = 0
DEFAUT = OUI
DEFAUT1 = YES
RUBRIQUE = 'PARAMETRES NUMERIQUES'
RUBRIQUE1 = 'NUMERICAL PARAMETERS'
NIVEAU = 1
AIDE= 'U.N = 0 sur le fond est force en fin de boucle en temps'
AIDE1 = 'Will ensure U.N = 0 on bottom by a projection 
at the end of time loop'
/
/  V6P1
/
NOM = 'CORRECTION FROTTEMENT DE PEAU'
NOM1 = 'SKIN FRICTION CORRECTION'     
TYPE = ENTIER
INDEX = 107
MNEMO = 'ICR'
DEFAUT  = 0
DEFAUT1 = 0
RUBRIQUE = 'FROTTEMENT'
RUBRIQUE1 = 'FRICTION'
NIVEAU = 2
AIDE = 'prise en compte du frottement de peau 
       0 : pas de correction (TAUP= TOB)   voir aussi KSPRATIO
       1 : fond plat (KSP= KSPRATIO * D50)
       2 : prise en compte des rides (non programme)'
AIDE1= 'formula to predict the skin bed roughness 
       0: NO correction (TAUP= TOB)  see also KSPRATIO
       1: Flat bed (KSP= KSPRATIO * D50)
       2: Ripple correction factor (not yet implemented)' 
       
NOM = 'FORMULE POUR LA CONCENTRATION DE REFERENCE' 
NOM1 = 'REFERENCE CONCENTRATION FORMULA' 
TYPE = ENTIER 
INDEX = 108
MNEMO = 'ICQ' 
DEFAUT = 1
DEFAUT1 = 1
RUBRIQUE = 'SUSPENSION'
RUBRIQUE1 = 'SUSPENSION'
NIVEAU = 2 
AIDE = '1 : formule de Zyserman et Fredsoe 
        2 :    
        3 : formule de Van Rijn (1987)'        
AIDE1 = '1: Zysderman and Fredsoe, equilibrium formula
         2: 
         3: Van Rijn formula'
       
NOM = 'FICHIER DES PARAMETRES DE TOMAWAC'
NOM1 = 'TOMAWAC STEERING FILE'
TYPE = CARACTERE
INDEX = 83
MNEMO = 'PAS DE MNEMO'
DEFAUT = ' '
DEFAUT1 = ' '
NIVEAU = 1
AIDE = 'Fichier des parametres de Tomawac en cas de couplage interne'
AIDE1 = 'Tomawac parameter file in case of internal coupling'
 
NOM = 'FICHIER DE COMMANDES MIGRHYCAR' 
NOM1 = 'MIGRHYCAR STEERING FILE' 
TYPE = CARACTERE 
INDEX = 57
MNEMO = 'T3D_FILES(T3DMIG)' 
SUBMIT = 'NMIG-READ-09;T3DMIG;FACUL;ASC;LIT;PARAL' 
DEFAUT = ' ' 
DEFAUT1 = ' ' 
RUBRIQUE = 'ENTREES-SORTIES, FICHIERS';'NOMS' 
RUBRIQUE1 = 'INPUT-OUTPUT, FILES';'NAMES' 
NIVEAU = 1 
AIDE = 'Contient les donnees pour le modele de derive de nappes' 
AIDE1 = 'Contains data for the oil spill model' 
 
NOM = 'MODELE DE NAPPES D''HYDROCARBURES' 
NOM1 = 'OIL SPILL MODEL' 
TYPE = LOGIQUE 
INDEX = 85 
MNEMO = 'SPILL_MODEL' 
TAILLE = 0 
DEFAUT = NON 
DEFAUT1 =  NO 
RUBRIQUE = 'ENTREES-SORTIES, GENERALITES';'CONTROLE' 
RUBRIQUE1 = 'INPUT-OUTPUT, INFORMATION';'CONTROL' 
NIVEAU = 1 
AIDE = 'POUR DECLENCHER LE MODELE DE DERIVE DE NAPPES, DANS 
CE CAS LE FICHIER DE COMMANDES MIGRHYCAR EST NECESSAIRE' 
AIDE1 = 'WILL TRIGGER THE OIL SPILL MODEL, IN THIS CASE 
THE MIGRHYCAR STEERING FILE IS NEEDED'             
/
/---------------------------------------------------------------------
/
NOM = 'DICTIONNAIRE'
NOM1 = 'DICTIONARY'
TYPE = CARACTERE
INDEX = 100
MNEMO = ''
SUBMIT = 'INUTILE;T3DDICO;OBLIG;ASC;LIT;DICO'
DEFAUT = 'telemac3dV6P1.dico'
DEFAUT1 = 'telemac3dV6P1.dico'
RUBRIQUE = 'ENTREES-SORTIES, GENERALITES';'ENVIRONNEMENT'
RUBRIQUE1 = 'INPUT-OUTPUT, INFORMATION';'COMPUTATION ENVIRONMENT'
NIVEAU = -3
AIDE ='Dictionnaire des mots cles.'
AIDE1 ='Key word dictionary.'
/
NOM = 'LISTE DES FICHIERS'
NOM1 = 'LIST OF FILES'
TYPE = CARACTERE
INDEX = 99
/
MNEMO = ''
TAILLE = 35
DEFAUT  = 'FICHIER DES PARAMETRES';
          'DICTIONNAIRE';
          'FICHIER FORTRAN';
          'FICHIER DE GEOMETRIE';
          'FICHIER DES CONDITIONS AUX LIMITES';
          'FICHIER DU CALCUL PRECEDENT';
          'FICHIER DES RESULTATS 3D';
          'FICHIER DES FONDS';
          'FICHIER POUR SCOPE';
          'FICHIER DES RESULTATS 2D';
          'FICHIER DE DONNEES FORMATE 1';
          'FICHIER DE DONNEES FORMATE 2';
          'FICHIER DE DONNEES BINAIRE 1';
          'FICHIER DE DONNEES BINAIRE 2';
          'FICHIER DES RESULTATS SEDIMENTOLOGIQUES';
          'FICHIER SEDIMENTOLOGIQUE DU CALCUL PRECEDENT';
          'FICHIER DE REFERENCE';
          'FICHIER DES RESULTATS POUR SUBIEF-3D';
          'FICHIER DES FRONTIERES LIQUIDES';
          'FICHIER DELWAQ DES VOLUMES';
          'FICHIER DELWAQ DES SURFACES DE FLUX';
          'FICHIER DELWAQ DES FLUX VERTICAUX';
          'FICHIER DELWAQ DE LA SALINITE';
          'FICHIER DELWAQ DES SURFACES DU FOND';
          'FICHIER DELWAQ DES ECHANGES ENTRE NOEUDS';
          'FICHIER DELWAQ DES DISTANCES ENTRE NOEUDS';
          'FICHIER DELWAQ DE LA TEMPERATURE';
          'FICHIER DELWAQ DE LA VITESSE';
          'FICHIER DELWAQ DE LA DIFFUSION';
          'FICHIER DE COMMANDE DELWAQ';
          'FICHIER DES COURBES DE TARAGE';
          'FICHIER DES SOURCES';
          'FICHIER DE RESULTATS BINAIRE';
          'FICHIER DE RESULTATS FORMATE';
          'FICHIER DE COMMANDES MIGRHYCAR'
DEFAUT1 = 'STEERING FILE';
          'DICTIONARY';
          'FORTRAN FILE';
          'GEOMETRY FILE';
          'BOUNDARY CONDITIONS FILE';
          'PREVIOUS COMPUTATION FILE';
          '3D RESULT FILE';
          'BOTTOM TOPOGRAPHY FILE';
          'FILE FOR SCOPE';
          '2D RESULT FILE';
          'FORMATTED DATA FILE 1';
          'FORMATTED DATA FILE 2';
          'BINARY DATA FILE 1';
          'BINARY DATA FILE 2';
          'SEDIMENTOLOGICAL RESULT FILE';
          'PREVIOUS COMPUTATION SEDIMENTOLOGICAL FILE';
          'REFERENCE FILE';
          'RESULT FILE FOR SUBIEF-3D';
          'LIQUID BOUNDARIES FILE';
          'VOLUMES DELWAQ FILE';
          'EXCHANGE AREAS DELWAQ FILE';
          'VERTICAL FLUXES DELWAQ FILE';
          'SALINITY DELWAQ FILE';
          'BOTTOM SURFACES DELWAQ FILE';
          'EXCHANGES BETWEEN NODES DELWAQ FILE';
          'NODES DISTANCES DELWAQ FILE';
          'TEMPERATURE DELWAQ FILE';
          'VELOCITY DELWAQ FILE';
          'DIFFUSIVITY DELWAQ FILE';
          'DELWAQ STEERING FILE';
          'STAGE-DISCHARGE CURVES FILE';
          'SOURCES FILE';
          'BINARY RESULTS FILE';
          'FORMATTED RESULTS FILE';
          'MIGRHYCAR STEERING FILE'
RUBRIQUE  = 'FICHIERS'
RUBRIQUE1 = 'FILES'
NIVEAU = 1
AIDE = 'Noms des fichiers exploites par le code'
AIDE1= 'File names of the used files'


//
//----Librairies du code-------------------------------------------
//
//Conventions de notation :
//   VVV = version
//   MMM = mode (debug ou non)
//   PPP = plateforme
//   LLL = extension d'une librairie ("a" ou "lib")
//    |  = seperateur dans un path (/ sous Unix, \ sous NT)
//
//    ex : "telemac2d|tel2d_VVV|PPP|telemac2dMMMVVV.LLL"
//----Librairies du code-------------------------------------------
//
//Conventions de notation :
//   VVV = version
//   MMM = mode (debug ou non)
//   PPP = plateforme
//   LLL = extension d'une librairie ("a" ou "lib")
//    |  = seperateur dans un path (/ sous Unix, \ sous NT)
//
//    ex : "telemac2d|tel2d_VVV|PPP|telemac2dMMMVVV.LLL"

NOM = 'DESCRIPTION DES LIBRAIRIES'
NOM1 = 'DESCRIPTION DES LIBRARIES'
TYPE = CARACTERE
INDEX = 80
MNEMO = 'LINKLIBS'
TAILLE = 8
DEFAUT = 'telemac3d|tel3d_VVV|PPP|telemac3dMMMVVV.LLL';
'telemac2d|tel2d_VVV|PPP|telemac2dMMMVVV.LLL';
'tomawac|toma_VVV|PPP|tomawacMMMVVV.LLL';
'sisyphe|sisyphe_VVV|PPP|sisypheMMMVVV.LLL';
'bief|bief_VVV|PPP|biefMMMVVV.LLL';
'special|special_VVV|PPP|specialMMMVVV.LLL';
'damocles|damo_VVV|PPP|damoMMMVVV.LLL';
'paravoid|paravoid_VVV|PPP|paravoidMMMVVV.LLL'

DEFAUT1 = 'telemac3d|tel3d_VVV|PPP|telemac3dMMMVVV.LLL';
'telemac2d|tel2d_VVV|PPP|telemac2dMMMVVV.LLL';
'tomawac|toma_VVV|PPP|tomawacMMMVVV.LLL';
'sisyphe|sisyphe_VVV|PPP|sisypheMMMVVV.LLL';
'bief|bief_VVV|PPP|biefMMMVVV.LLL';
'special|special_VVV|PPP|specialMMMVVV.LLL';
'damocles|damo_VVV|PPP|damoMMMVVV.LLL';
'paravoid|paravoid_VVV|PPP|paravoidMMMVVV.LLL'

RUBRIQUE = 'ENTREES-SORTIES, GENERALITES';'CALCUL'
RUBRIQUE1 = 'INPUT-OUTPUT, INFORMATION';'COMPUTATIONAL INFORMATION'
NIVEAU = 1
AIDE  = 'Description des librairies de T2D'
AIDE1 = 'LIBRARIES description'

//----Executable par defaut du code---------------------------------
//
//Conventions de notation :
//   VVV = version
//   MMM = mode (debug ou non)
//   PPP = plateforme
//    |  = separateur dans un path (/ sous Unix, \ sous NT)
//
//    ex : "telemac3d|tel3d_VVV|PPP|telemac3dMMMVVV.LLL"

NOM = 'EXECUTABLE PAR DEFAUT'
NOM1 = 'DEFAULT EXECUTABLE'
TYPE = CARACTERE
INDEX = 81
MNEMO = 'EXEDEF'
TAILLE = 1
DEFAUT  = 'telemac3d|tel3d_VVV|PPP|telemac3dMMMVVV.exe'
DEFAUT1 = 'telemac3d|tel3d_VVV|PPP|telemac3dMMMVVV.exe'
RUBRIQUE = 'ENTREES-SORTIES, GENERALITES';'CALCUL'
RUBRIQUE1 = 'INPUT-OUTPUT, INFORMATION';'COMPUTATIONAL INFORMATION'
NIVEAU = 1
AIDE  = 'Executable par defaut de T3D'
AIDE1 = 'Default executable for T3D'

NOM = 'EXECUTABLE PARALLELE PAR DEFAUT'
NOM1 = 'DEFAULT PARALLEL EXECUTABLE'
TYPE = CARACTERE
INDEX = 82
MNEMO = 'EXEDEFPARA'
TAILLE = 1
DEFAUT  = 'telemac3d|tel3d_VVV|PPP|telemac3dMMMVVV_MP.exe'
DEFAUT1 = 'telemac3d|tel3d_VVV|PPP|telemac3dMMMVVV_MP.exe'
RUBRIQUE = 'ENTREES-SORTIES, GENERALITES';'CALCUL'
RUBRIQUE1 = 'INPUT-OUTPUT, INFORMATION';'COMPUTATIONAL INFORMATION'
NIVEAU = 1
AIDE  = 'Executable parallele par defaut de T3D'
AIDE1 = 'Default parallel executable for T3D'

