/ 
/
/  PARABOLIC BOWL WITH FINITE VOLUMES
/
/  Version 6.2
/
/  HP C3700 compilateur HP         : 11 s  23/05/2012 
/
FICHIER FORTRAN                    : t2d_bowl.f           
FICHIER DES CONDITIONS AUX LIMITES : geo_bowl.cli     
FICHIER DE GEOMETRIE               : geo_bowl.slf                            
FICHIER DES RESULTATS              : r2d_bowl_vf.slf
FICHIER DE REFERENCE               : f2d_bowl_vf_fr.slf VALIDATION:OUI
/
EQUATIONS : 'SAINT-VENANT VF'    SCHEMA EN VOLUMES FINIS : 1
/                                                    
/----------------------------------------------------------------------/    
/                        OPTIONS GENERALES                                  
/----------------------------------------------------------------------/ 
TITRE = 'TELEMAC 2D: CAS DU BOL PARABOLIQUE '  

VARIABLES POUR LES SORTIES GRAPHIQUES : 'U,V,H,S,B'                         
PAS DE TEMPS = 0.1   
DUREE DU CALCUL : 1756.2
PERIODE POUR LES SORTIES GRAPHIQUES :1000
PERIODE DE SORTIE LISTING = 100
PAS DE TEMPS VARIABLE : OUI                                             
NOMBRE DE COURANT SOUHAITE = 0.8
/----------------------------------------------------------------------/    
MODELE DE TURBULENCE = 1    / 1:LAMINAIRE  3:K-EPSILON /                    
/----------------------------------------------------------------------/    
/ 0:RIEN 1:LINEAIRE 2:CHEZY 3:STRICKLER                                     
LOI DE FROTTEMENT SUR LE FOND : 0           
/----------------------------------------------------------------------/    
/     PROPAGATION                                                           
/----------------------------------------------------------------------/    
COEFFICIENT DE DIFFUSION DES VITESSES = 0.                                  
MAXIMUM D'ITERATIONS POUR LE SOLVEUR : 100 
PRECISION DU SOLVEUR = 1.E-4     
SOLVEUR : 7  
PRECONDITIONNEMENT : 2    
ORDRE DU TIR INITIAL POUR H :1     
OPTION DU SOLVEUR : 3                                                       
IMPLICITATION POUR LA HAUTEUR = 0.6 
IMPLICITATION POUR LA VITESSE = 0.6     
BILAN DE MASSE : OUI   
CONDITIONS INITIALES : PARTICULIERES                 
FORME DE LA CONVECTION : 1;1                             
OPTION DE SUPG      : 2;2                                                                                                         
CLIPPING DE H : NON   
BANCS DECOUVRANTS : OUI                              
/----------------------------------------------------------------------/ 
/TRACEUR : OUI 
&ETA                                                                        
