/
/  HP C3700 compilateur HP      :  60 s  5.5  26/11/2004
/  HP C3700 compilateur HP      :  57 s  5.7  18/04/2007
/  Dell 2.8 MHz compilateur pgi :  43 s  5.7  19/04/2007
/
/  HP C3700 compilateur HP      :  59 s  5.8  13/11/2007
/  HP C3700 compilateur Nag     : 147 s  5.8  20/12/2007
/  Dell 2.8 MHz compilateur pgi :  44 s  5.8  19/12/2007
/
/  HP C3700 compilateur HP      :  57 s  5.9  15/10/2008
/  HP C3700 compilateur Nag     : 148 s  5.9  16/10/2008
/  Dell 2.8 MHz compilateur pgi :  43 s  5.9  15/10/2008
/
/  HP C3700 compilateur HP        :  55 s  6.0  24/11/2009
/  HP C3700 compilateur Nag       : 152 s  6.0  26/11/2009
/  Dell 2.8 MHz compilateur Intel :  32 s  6.0  26/11/2009
/
/  EN MODE ESTIMATION
/
ESTIMATION DE PARAMETRE : 'FROTTEMENT PERMANENT'
DEFINITION DE ZONES : OUI
/ 1 : GRADIENT  2 : GRADIENT CONJUGUE  3 : INTERPOLATION DE LAGRANGE
METHODE D'IDENTIFICATION : 2
FONCTION COUT : 1
MAXIMUM D'ITERATIONS POUR L'IDENTIFICATION : 20
PRECISIONS POUR L'IDENTIFICATION : 1.E-3;1.E-3;1.E-3;1.E-5
/CONDITIONS INITIALES : VOIR CONDIN
/
/
FICHIER FORTRAN                    : t2d_estimation.f
FICHIER DES CONDITIONS AUX LIMITES : geo_estimation.cli
FICHIER DE GEOMETRIE               : geo_estimation.slf
FICHIER DE REFERENCE               : f2d_estimation.slf
FICHIER DES RESULTATS              : r2d_estimation.slf
FICHIER DE RESULTATS BINAIRE       : rbi_estimation.slf
FICHIER DE RESULTATS FORMATE       : rfo_estimation.txt
FICHIER DES FRONTIERES LIQUIDES    : t2d_estimation.qsl
/
TITRE = 'TELEMAC 2D : TEST DE CANAL$'
SUITE DE CALCUL = NON
PAS DE TEMPS = 2.         NOMBRE DE PAS DE TEMPS = 1000
PERIODE POUR LES SORTIES GRAPHIQUES : 100
PERIODE DE SORTIE LISTING : 100
VARIABLES POUR LES SORTIES GRAPHIQUES : 'U,V,H,B,S'
/                                                  REFERENCE : 35.
/LOI DE FROTTEMENT SUR LE FOND = 3 COEFFICIENT DE FROTTEMENT = 35.
 LOI DE FROTTEMENT SUR LE FOND = 3 COEFFICIENT DE FROTTEMENT = 5.
COEFFICIENT DE DIFFUSION DES VITESSES = 0.
PRECISION DU SOLVEUR = 1.E-4      PRECONDITIONNEMENT : 2
IMPLICITATION POUR LA HAUTEUR=0.55 IMPLICITATION POUR LA VITESSE=0.55
DEBITS IMPOSES : 0.  ;  50.
COTES IMPOSEES : 0.5 ;   0.
INFORMATIONS SUR LE SOLVEUR : OUI    ORDRE DU TIR INITIAL POUR H : 1
CONDITIONS INITIALES : 'COTE CONSTANTE'
COTE INITIALE : 0.5
BILAN DE MASSE : OUI         VALIDATION : NON
/----------------------------------------------------------------------/
STOCKAGE DES MATRICES : 1    DISCRETISATIONS EN ESPACE : 11 ; 11
SOLVEUR : 7          PRODUIT MATRICE-VECTEUR : 1
FORME DE LA CONVECTION : 1;5
OPTION DE SUPG         : 1;2
CONVECTION : OUI
/&ETA
