# _____                              _______________________________
# ____/ TELEMAC Project Definitions /______________________________/
#
[Configurations]
configs:    debgfopenmpi debgfortrans
#
# _____                         ____________________________________
# ____/ Debian gfortran scalar /___________________________________/
[debgfortrans]
#
root:       /home/telemac/workspace/trunk
version:    v6p1
language:   2
modules:    system
options:
#
cmd_obj:    gfortran -c -O3 -ffixed-line-length-132 -fconvert=big-endian -frecord-marker=4 <mods> <incs> <f95name>
cmd_lib:    ar cru <libname> <objs>
cmd_exe:    gfortran -fconvert=big-endian -frecord-marker=4 -v -lm -lz -o <exename> <objs> <libs>
#
mods_all:   -I <config>
#
sfx_zip:    .gztar
sfx_lib:    .lib
sfx_obj:    .o
sfx_mod:    .mod
sfx_exe:
#
# _____                          ___________________________________
# ____/ Debian gfortran openMPI /__________________________________/
[debgfopenmpi]
#
root:       /home/telemac/workspace/trunk
version:    v6p1
language:   2
modules:    system
options:    parallel mpi
#mpi_hosts -localonly
mpi_cmdexec: /usr/bin/mpiexec <wdir> <ncsize> <hosts> <exename>
#
cmd_obj:    gfortran -c -O3 -ffixed-line-length-132 -fconvert=big-endian -frecord-marker=4 <mods> <incs> <f95name>
cmd_lib:    ar cru <libname> <objs>
cmd_exe:    /usr/bin/mpif90 -fconvert=big-endian -frecord-marker=4 -lpthread -v -lm -lz -o <exename> <objs> <libs>
#
mods_all:   -I <config>
#
incs_parallel:      -I /usr/include/mpi/
libs_parallel:      /home/telemac/metis-4.0.3/libmetis.a
libs_all       :    /usr/lib64/openmpi/lib/libmpi.so.0.0.2
#
sfx_zip:    .gztar
sfx_lib:    .lib
sfx_obj:    .o
sfx_mod:    .mod
sfx_exe:
#