# _____                              _______________________________
# ____/ TELEMAC Project Definitions /______________________________/
#
[Configurations]
configs:    susgfortrans susgfopenmpi
#
# _____                           __________________________________
# ____/ OpenSUSE gfortran scalar /_________________________________/
[susgfortrans]
#
root:       /home/telemac/workspace/trunk
version:    v6p2
language:   2
modules:    update system
options:
#
cmd_obj:    gfortran -c -O3 -ffixed-line-length-132 -fconvert=big-endian -frecord-marker=4 <mods> <incs> <f95name>
cmd_lib:    ar cru <libname> <objs>
cmd_exe:    gfortran -fconvert=big-endian -frecord-marker=4 -v -o <exename> <objs> -Xlinker --start-group <libs> --end-group
#
mods_all:   -I <config>
#
sfx_zip:    .gztar
sfx_lib:    .lib
sfx_obj:    .o
sfx_mod:    .mod
sfx_exe:
#
# also possible val_root:   <root>/../validation
val_root:   <modpath>/validation
val_rank:   all
# also possible val_rank:   <3 >7 6
#
# _____                            _________________________________
# ____/ OpenSUSE gfortran openMPI /________________________________/
[susgfopenmpi]
#
root:       /home/telemac/workspace/trunk
version:    v6p2
language:   2
modules:    update system
#
options:    parallel mpi
#
par_cmdexec:   <config>/partel < PARTEL.PAR >> <partel.log>
#
mpi_cmdexec:   /usr/lib64/mpi/gcc/openmpi/bin/mpiexec -wdir <wdir> -n <ncsize> <exename>
mpi_hosts:
#
cmd_obj:    gfortran -c -O3 -ffixed-line-length-132 -fconvert=big-endian -frecord-marker=4 <mods> <incs> <f95name>
cmd_lib:    ar cru <libname> <objs>
cmd_exe:    /usr/lib64/mpi/gcc/openmpi/bin/mpif90 -fconvert=big-endian -frecord-marker=4 -lpthread -v -lm -o <exename> <objs> -Xlinker --start-group <libs> --end-group
#
mods_all:   -I <config>
#
incs_parallel:      -I /usr/lib64/mpi/gcc/openmpi/include
libs_parallel:      /home/telemac/metis-4.0.3/libmetis.a
libs_all       :    /usr/lib64/mpi/gcc/openmpi/lib64/libmpi.so
#
sfx_zip:    .gztar
sfx_lib:    .lib
sfx_obj:    .o
sfx_mod:    .mod
sfx_exe:
#
# also possible val_root:   <root>/../validation
val_root:   <modpath>/validation
val_rank:   all
# also possible val_rank:   <3 >7 6
#