/
/  Temps calcul sur HP C3700                 : 27 s  5.5 24/11/2005
/
/  Temps calcul sur HP C3700 compilateur HP  : 14 s  5.7 17/04/2007
/  Temps calcul sur HP C3700 compilateur Nag : 35 s  5.7 17/04/2007
/  Temps calcul sur Linux compilateur pgi 6.2: 11 s  5.7 17/04/2007
/
/  Temps calcul sur HP C3700 compilateur HP  : 13 s  5.8 13/11/2007
/  Temps calcul sur HP C3700 compilateur Nag : 34 s  5.8 20/12/2007
/  Temps calcul sur Linux compilateur pgi 6.2: 11 s  5.8 19/12/2007 
/
/  Temps calcul sur HP C3700 compilateur HP  : 14 s  5.9 15/10/2008
/  Temps calcul sur HP C3700 compilateur Nag : 35 s  5.9 16/10/2008
/  Temps calcul sur Linux compilateur pgi 6.2: 11 s  5.9 15/10/2008
/
/  Temps calcul sur HP C3700 compilateur HP  : 14 s  6.0 24/11/2009
/  Temps calcul sur HP C3700 compilateur Nag : 35 s  6.0 26/11/2009
/  Temps calcul sur Linux compilateur pgi 6.2:  8 s  6.0 26/11/2009
/
/  Version 6.2
/
/  Temps calcul sur HP C3700 compilateur HP  : 13 s  04/05/2012
/
/
/  Note : sur le fichier flot.slf, Rubens donne des mailles
/         mal orientées, mais c'est bon quand même.
/
/
/----------------------------------------------------------------------
/             Exemple d'initiation - Calcul numero 2
/          Calcul de stabilisation 2eme PHASE avec reprise
/                 Passage au debit de 700m3/sec
/              Utilisation des sections de controle
/----------------------------------------------------------------------
/                      ENVIRONNEMENT INFORMATIQUE
/----------------------------------------------------------------------
/
FICHIER FORTRAN                     : t2d_flotteurs_v2p0.f
FICHIER DES CONDITIONS AUX LIMITES  : geo_flotteurs.cli
FICHIER DE GEOMETRIE                : geo_flotteurs.slf
FICHIER DES RESULTATS               : r2d_flotteurs_v2p0.slf
FICHIER DU CALCUL PRECEDENT         : r2d_flotteurs_v1p0.slf
FICHIER DE RESULTATS BINAIRE        : rbi_flotteurs_v2p0.slf
/
/----------------------------------------------------------------------
/                        OPTIONS GENERALES
/----------------------------------------------------------------------
/
TITRE : 'TELEMAC-2D - Initiation - Calcul numero 2'
/
VARIABLES POUR LES SORTIES GRAPHIQUES             : 'U,V,S,B,H,Q,M,F,L'
VARIABLES A IMPRIMER                              : ''
PAS DE TEMPS                                      : 5.
DUREE DU CALCUL                                   : 3600.
PERIODE POUR LES SORTIES GRAPHIQUES               : 60
PERIODE DE SORTIE LISTING                         : 24
SUITE DE CALCUL                                   : OUI
/
/----------------------------------------------------------------------
/                    CONDITIONS AUX LIMITES
/----------------------------------------------------------------------
/
LOI DE FROTTEMENT SUR LE FOND                     :    3    
COEFFICIENT DE FROTTEMENT                         :   55. 
COTES IMPOSEES                                    :  265.;0.
DEBITS IMPOSES                                    :  0.;700.
/    
/----------------------------------------------------------------------
/                       OPTIONS NUMERIQUES
/----------------------------------------------------------------------
/
BANCS DECOUVRANTS                                 : NON
MODELE DE TURBULENCE                              : 1                    
BILAN DE MASSE                                    : OUI
NOMBRE DE SOUS-ITERATIONS POUR LES NON-LINEARITES : 1
PRECISION DU SOLVEUR                              : 1.E-4 
FORME DE LA CONVECTION                            : 1;5
COEFFICIENT DE DIFFUSION DES VITESSES             : 1.E-2
SOLVEUR                                           : 7
OPTION DU SOLVEUR                                 : 3
MASS-LUMPING SUR H                                : 1.
MASS-LUMPING SUR LA VITESSE                       : 1.
STOCKAGE DES MATRICES                             : 3
TRAITEMENT DU SYSTEME LINEAIRE                    : 2
/
/----------------------------------------------------------------------
/ FLOTTEURS ET SECTIONS DE CONTROLE
/----------------------------------------------------------------------
SECTIONS DE CONTROLE                              :  56;211;286;43
NOMBRE DE FLOTTEURS                               : 2
PERIODE POUR LES SORTIES FLOTTEURS                : 60
&FIN                                                              
