/-------------------------------------------------------------------/
/ TELEMAC-2D          DAM BREAK OVER DRY BED                        /
/-------------------------------------------------------------------/
/
/  TEST OF FINITE ELEMENTS WITH NEW DRY BED ALGORITHMS
/
/  Version 6.0
/
/  HP C3700 compilateur HP      :  7 s  24/11/2009
/  HP C3700 compilateur Nag     : 20 s  27/11/2009
/  Dell Linux compilateur Intel :  3 s  26/11/2009
/
/  Version 6.2
/
/  HP C3700 compilateur HP      :  8 s  04/051/2012
/
/----------------------------------------------
/  COMPUTER INFORMATIONS
/----------------------------------------------
/
GEOMETRY FILE                   = geo_dambreak.slf
FORTRAN FILE                    = t2d_dambreak.f
BOUNDARY CONDITIONS FILE        = geo_dambreak.cli
RESULTS FILE                    = r2d_dambreak_v2p0.slf
REFERENCE FILE                  = f2d_dambreak_v2p0.slf
PARALLEL PROCESSORS             = 0
/
/----------------------------------------------
/  GENERAL INFORMATIONS - OUTPUTS
/----------------------------------------------
/
TITLE                           = 'DAM BREAK OVER DRY BED'
VARIABLES FOR GRAPHIC PRINTOUTS = 'U,V,H,F,L,N'
GRAPHIC PRINTOUT PERIOD         = 150
LISTING PRINTOUT PERIOD         = 15
TIME STEP                       = 0.01
NUMBER OF TIME STEPS            = 150
VARIABLE TIME-STEP : YES
DURATION : 1.5
MASS-BALANCE                    = YES
INFORMATION ABOUT SOLVER        = YES
VALIDATION                      = YES
/----------------------------------------------
/  INITIAL CONDITIONS
/----------------------------------------------
/
COMPUTATION CONTINUED           = NO 
INITIAL CONDITIONS              = 'PARTICULAR'
/
/----------------------------------------------
/  PHYSICAL PARAMETERS
/----------------------------------------------
/
LAW OF BOTTOM FRICTION          = 0
TURBULENCE MODEL                = 1
VELOCITY DIFFUSIVITY            = 0.
/
/----------------------------------------------
/  NUMERICAL PARAMETERS 
/----------------------------------------------
/
EQUATIONS                       = 'SAINT-VENANT EF'
NUMBER OF PRIVATE ARRAYS        = 1
TIDAL FLATS                     = YES
OPTION FOR THE TREATMENT OF TIDAL FLATS : 1
TREATMENT OF NEGATIVE DEPTHS : 2
TYPE OF ADVECTION               =14;5
SUPG OPTION                     = 0;0
DISCRETIZATIONS IN SPACE        = 11;11
SOLVER ACCURACY                 = 1.E-4
SOLVER                          = 1
PRECONDITIONING                 = 2
IMPLICITATION FOR DEPTH         = 1.
IMPLICITATION FOR VELOCITY      = 0.6
INITIAL GUESS FOR H             = 1 
/
TREATMENT OF THE LINEAR SYSTEM : 2
MASS-LUMPING ON H : 1. 
CONTINUITY CORRECTION : YES 
FREE SURFACE GRADIENT COMPATIBILITY : 0.9
/           
&FIN
