STOCKAGE DES MATRICES : 3
/
/  TEMPS CALCUL SUR HP C 3700 : 1226 s  5.5  02/12/2004
/  TEMPS CALCUL SUR HP C 3700 : 1110 s  5.5  04/03/2005 (nouvelle diffusion)
/  TEMPS CALCUL SUR HP C 3700 : 1039 s  5.6  24/08/2005 
/  TEMPS CALCUL SUR HP C 3700 :  941 s  5.6  27/09/2005 (stockage 3)
/  TEMPS CALCUL SUR HP C 3700 : 1090 s  5.6  09/01/2006 (bugs corriges ??)
/  TEMPS CALCUL SUR HP C 3700 : 1101 s  5.7  13/02/2007 (Nag:2363 s,Dell:778 s)
/  TEMPS CALCUL SUR HP C 3700 : 1047 s  5.8  19/12/2007 (Nag:2773 s,Dell:759 s)
/  TEMPS CALCUL SUR HP C 3700 : 1065 s  5.9  17/10/2008 (Nag:2515 s,Dell:756 s)
/
/----------------------------------------------------------------------
/                        CALCUL TELEMAC-3D
/----------------------------------------------------------------------
/
FICHIER DES CONDITIONS AUX LIMITES : geo_plage.cli
FICHIER DE GEOMETRIE               : geo_plage.slf
FICHIER DES RESULTATS 2D           : r2d_plage.slf
FICHIER DE REFERENCE               : f3d_plage.slf    VALIDATION : OUI
FICHIER DES RESULTATS 3D           : r3d_plage.slf
/
CONDITIONS INITIALES : 'COTE CONSTANTE' COTE INITIALE : 0.1
COTES IMPOSEES  : 0.1 ; 0.0
DEBITS IMPOSES  : 0.  ; 0.155
/
LOI DE FROTTEMENT SUR LE FOND : 3
COEFFICIENT DE FROTTEMENT POUR LE FOND : 60.
/
/----------------------------------------------------------------------
/                        OPTIONS GENERALES                              
/----------------------------------------------------------------------
/                                                                       
TITRE : 'TEST CANAL avec cavite et plage'
VARIABLES POUR LES SORTIES GRAPHIQUES 2D    : 'U,V,H,S,B'
VARIABLES POUR LES SORTIES GRAPHIQUES 3D    : 'Z,U,V,W'
PAS DE TEMPS : 0.2    NOMBRE DE PAS DE TEMPS : 1000
PERIODE POUR LES SORTIES GRAPHIQUES : 100
PERIODE POUR LES SORTIES LISTING    : 10
NOMBRE DE PLANS HORIZONTAUX : 7
/
/----------------------------------------------------------------------
/                       OPTIONS NUMERIQUES
/----------------------------------------------------------------------
/
BANCS DECOUVRANTS                            : NON
/
BILAN DE MASSE 						  : OUI
INFORMATION SUR LE BILAN DE MASSE A CHAQUE SORTIE LISTING : OUI
MODELE DE TURBULENCE VERTICAL                             : 7
PRECISION POUR LA DIFFUSION DU K-EPSILON :1.E-8
COEFFICIENT DE DIFFUSION VERTICAL DES VITESSES            : 1.E-6
/
MODELE DE TURBULENCE HORIZONTAL                           : 7
COEFFICIENT DE DIFFUSION HORIZONTAL DES VITESSES          : 1.E-6
/
SCHEMA POUR LA DIFFUSION DES VITESSES 			  : 1
/
SCHEMA POUR LA CONVECTION DES VITESSES                    : 1
/
PRECISION POUR LA DIFFUSION DES VITESSES                  : 1.E-7
SOLVEUR POUR LA PROPAGATION : 7
PRECISION POUR LA PROPAGATION                             : 1.E-6
PRECISION POUR LA VITESSE VERTICALE                       : 1.E-6
IMPLICITATION POUR LA HAUTEUR                             : 0.6
IMPLICITATION POUR LES VITESSES                           : 0.6
/
/----------------------------------------------------------------------
/
/ ACCELERATION SPECTACULAIRE : EQUATION D'ONDE
/ 
OPTION POUR L'ETAPE HYDROSTATIQUE : 2
/
&FIN                                                              
