# _____                              _______________________________
# ____/ TELEMAC Project Definitions /______________________________/
#
[Configurations]
configs:    ubugfortrans ubugfmpich2 ubugfmpich2dbg
# ubunsun32s ubunsun32sdbg ubunsun32p ubunsun32pdbg ubugfopenmpi ubugfopenmpidbg
[general]
root:       /home/telemac/workspace/trunk
version:    v7p0
language:   2
modules:    update system -dredgesim
options:
#
mods_all:   -I <config>
#
sfx_zip:    .gztar
sfx_lib:    .a
sfx_obj:    .o
sfx_mod:    .mod
sfx_exe:
#
val_root:   <root>/examples
val_rank:   all
# also possible val_rank:   <3 >7 6
# _____                         ____________________________________
# ____/ Ubuntu gfortran scalar /___________________________________/
[ubugfortrans]
#
cmd_obj:    gfortran-4.8 -c -O3 -fconvert=big-endian -frecord-marker=4 <mods> <incs> <f95name>
cmd_lib:    ar cru <libname> <objs>
cmd_exe:    gfortran-4.8 -fconvert=big-endian -frecord-marker=4 -v -o <exename> <objs> <libs>
#
# _____                               ____________________________________
# ____/ Ubuntu gfortran scalar debug/___________________________________/
[ubugfortransdbg]
#
cmd_obj:    gfortran-4.8 -c -g -fbounds-check -Wall -fbacktrace -finit-real=nan -fconvert=big-endian -frecord-marker=4 <mods> <incs> <f95name>
cmd_lib:    ar cru <libname> <objs>
cmd_exe:    gfortran-4.8 -fconvert=big-endian -frecord-marker=4 -v -o <exename> <objs> <libs>
#
# _____                         ____________________________________
# ____/ Ubuntu gfortran mpich2 /___________________________________/
[ubugfmpich2]
#
options:    
#
par_cmdexec:   <config>/partel < PARTEL.PAR >> <partel.log>
#
mpi_cmdexec:   /usr/bin/mpiexec -wdir <wdir> -n <ncsize> <exename>
mpi_hosts:
#
cmd_obj:    gfortran-4.8 -c -O3 -fbounds-check -Wall -fbacktrace -finit-real=nan -DHAVE_MPI -fconvert=big-endian -frecord-marker=4 <mods> <incs> <f95name>
cmd_lib:    ar cru <libname> <objs>
cmd_exe:    /usr/bin/mpif90 -fconvert=big-endian -frecord-marker=4 -lpthread -v -lm -o <exename> <objs>  <libs>
#
incs_parallel:      -I /usr/lib/mpich2/include/
libs_partel:      /home/telemac/workspace/libs/libmetis.a
libs_all       :    /usr/lib/mpich2/lib/libmpich.so
#
# _____                               ____________________________________
# ____/ Ubuntu gfortran mpich2 debug /___________________________________/
[ubugfmpich2dbg]
#
options:    
#
par_cmdexec:   <config>/partel < PARTEL.PAR >> <partel.log>
#
mpi_cmdexec:   /usr/bin/mpiexec -wdir <wdir> -n <ncsize> <exename>
mpi_hosts:
#
cmd_obj:    gfortran-4.8 -c -g -fbounds-check -Wall -fbacktrace -finit-real=nan -DHAVE_MPI -fconvert=big-endian -frecord-marker=4 <mods> <incs> <f95name>
cmd_lib:    ar cru <libname> <objs>
cmd_exe:    /usr/bin/mpif90 -fconvert=big-endian -frecord-marker=4 -lpthread -v -lm -o <exename> <objs>  <libs>
#
incs_parallel:      -I /usr/lib/mpich2/include/
libs_partel:      /home/telemac/workspace/libs/libmetis.a
libs_all       :    /usr/lib/mpich2/lib/libmpich.so
#
