# _____                              _______________________________
# ____/ TELEMAC Project Definitions /______________________________/
#
[Configurations]
configs:    debgfopenmpi debgfopenmpidbg debgfortrans debgfortransdbg
#
# _____                         ____________________________________
# ____/ Debian gfortran scalar /___________________________________/
[debgfortrans]
#
root:       /home/telemac/workspace/trunk
version:    v6p2
language:   2
modules:    system
options:
#
cmd_obj:    gfortran -c -O3 -ffixed-line-length-132 -fconvert=big-endian -frecord-marker=4 <mods> <incs> <f95name>
cmd_lib:    ar cru <libname> <objs>
cmd_exe:    gfortran -fconvert=big-endian -frecord-marker=4 -v -o <exename> <objs> -Xlinker --start-group <libs> --end-group
#
mods_all:   -I <config>
#
sfx_zip:    .gztar
sfx_lib:    .lib
sfx_obj:    .o
sfx_mod:    .mod
sfx_exe:
#
# also possible val_root:   <root>/../validation
val_root:   <root>/examples
val_rank:   all
# also possible val_rank:   <3 >7 6
#
# _____                               ____________________________________
# ____/ Debian gfortran scalar debug /___________________________________/
[debgfortransdbg]
#
root:       /home/telemac/workspace/trunk
version:    v6p2
language:   2
modules:    system
options:
#
cmd_obj:    gfortran -c -g -fbounds-check -Wall -fbacktrace -finit-real=nan -ffixed-line-length-132 -fconvert=big-endian -frecord-marker=4 <mods> <incs> <f95name>
cmd_lib:    ar cru <libname> <objs>
cmd_exe:    gfortran -fconvert=big-endian -frecord-marker=4 -v -o <exename> <objs> -Xlinker --start-group <libs> --end-group
#
mods_all:   -I <config>
#
sfx_zip:    .gztar
sfx_lib:    .lib
sfx_obj:    .o
sfx_mod:    .mod
sfx_exe:
#
# also possible val_root:   <root>/../validation
val_root:   <root>/examples
val_rank:   all
# also possible val_rank:   <3 >7 6
#
# _____                          ___________________________________
# ____/ Debian gfortran openMPI /__________________________________/
[debgfopenmpi]
#
root:       /home/telemac/workspace/trunk
version:    v6p2
language:   2
modules:    update system
#
options:    parallel mpi
#
par_cmdexec:   <config>/partel < PARTEL.PAR >> <partel.log>
#
mpi_cmdexec:   /usr/bin/mpiexec -wdir <wdir> -n <ncsize> <exename>
mpi_hosts:
#
cmd_obj:    gfortran -c -O3 -ffixed-line-length-132 -fconvert=big-endian -frecord-marker=4 <mods> <incs> <f95name>
cmd_lib:    ar cru <libname> <objs>
cmd_exe:    /usr/bin/mpif90 -fconvert=big-endian -frecord-marker=4 -lpthread -v -lm -o <exename> <objs> -Xlinker --start-group <libs> --end-group
#
mods_all:   -I <config>
#
incs_parallel:      -I /usr/include/mpi/
libs_partel:      /home/telemac/metis-4.0.3/libmetis.a
libs_all       :    /usr/lib64/openmpi/lib/libmpi.so.0.0.2
#
sfx_zip:    .gztar
sfx_lib:    .lib
sfx_obj:    .o
sfx_mod:    .mod
sfx_exe:
#
# also possible val_root:   <root>/../validation
val_root:   <root>/examples
val_rank:   all
# also possible val_rank:   <3 >7 6
#
# _____                                ___________________________________
# ____/ Debian gfortran openMPI debug /__________________________________/
[debgfopenmpidbg]
#
root:       /home/telemac/workspace/trunk
version:    v6p2
language:   2
modules:    update system
#
options:    parallel mpi
#
par_cmdexec:   <config>/partel < PARTEL.PAR >> <partel.log>
#
mpi_cmdexec:   /usr/bin/mpiexec -wdir <wdir> -n <ncsize> <exename>
mpi_hosts:
#
cmd_obj:    gfortran -c -g -fbounds-check -Wall -fbacktrace -finit-real=nan -ffixed-line-length-132 -fconvert=big-endian -frecord-marker=4 <mods> <incs> <f95name>
cmd_lib:    ar cru <libname> <objs>
cmd_exe:    /usr/bin/mpif90 -fconvert=big-endian -frecord-marker=4 -lpthread -v -lm -o <exename> <objs> -Xlinker --start-group <libs> --end-group
#
mods_all:   -I <config>
#
incs_parallel:      -I /usr/include/mpi/
libs_partel:      /home/telemac/metis-4.0.3/libmetis.a
libs_all       :    /usr/lib64/openmpi/lib/libmpi.so.0.0.2
#
sfx_zip:    .gztar
sfx_lib:    .lib
sfx_obj:    .o
sfx_mod:    .mod
sfx_exe:
#
# also possible val_root:   <root>/../validation
val_root:   <root>/examples
val_rank:   all
# also possible val_rank:   <3 >7 6
#
