/ 
/ TEST WITH TETRAHEDRA
/
ELEMENT : TETRAEDRE
/
/ NOT PROGRAMMED IN HYDROSTATIC OPTION AND WITH CHARACTERISTICS
/
VERSION NON-HYDROSTATIQUE : OUI
SCHEMA POUR LA CONVECTION DES TRACEURS : 3
SCHEMA POUR LA CONVECTION DES VITESSES : 3
/
/  HP C3700 : 7 s    5.5  30/11/2004
/  HP C3700 : 7 s    5.5  04/03/2005 (nouvelle diffusion)
/  HP C3700 : 5 s    5.6  24/08/2005 
/  HP C3700 : 4 s    5.6  05/02/2007 (Nag : 5 s, Dell  : 1 s)
/  HP C3700 : 2 s    5.8  19/12/2007 (Nag : 4 s, Dell  : 1 s)
/  HP C3700 : 3 s    5.9  17/10/2008 (Nag : 3 s, Dell  : 1 s)
/  HP C3700 : 2 s    6.0  21/05/2010 (Nag : 3 s, Intel : 0 s)
/  HP C3700 : 2 s    6.1  21/01/2011 (Nag : 4 s, Intel : ? s)
/
/------------------------------------
/ TELEMAC 3D test-case V5.3 
/ V-Container
/ Updated 12/2000 AG @ LNHE
/------------------------------------
/ 
TITRE = '--> V Shapped Container'
/
FICHIER FORTRAN                    : t3d_V.f
FICHIER DES CONDITIONS AUX LIMITES : geo_V.cli
FICHIER DE GEOMETRIE               : geo_V.slf
/
FICHIER DES RESULTATS 3D           : r3d_V.slf
FICHIER DES RESULTATS 2D           : r2d_V.slf
/
FICHIER DE REFERENCE               : f3d_V.slf
VALIDATION : OUI
/ 
NOMBRE DE PAS DE TEMPS = 10
PAS DE TEMPS = 0.1
PERIODE POUR LES SORTIES GRAPHIQUES = 5
PERIODE POUR LES SORTIES LISTING = 1
NOMBRE DE PLANS HORIZONTAUX = 11
/ 
NOMBRE DE PAS DE TEMPS = 10
PAS DE TEMPS = 0.1
PERIODE POUR LES SORTIES GRAPHIQUES = 5
PERIODE POUR LES SORTIES LISTING = 1
NOMBRE DE PLANS HORIZONTAUX = 11
/ 
BILAN DE MASSE = OUI 
INFORMATION SUR LE BILAN DE MASSE A CHAQUE SORTIE LISTING = OUI 
VARIABLES POUR LES SORTIES GRAPHIQUES 2D = S,U,V,H,B
VARIABLES POUR LES SORTIES GRAPHIQUES 3D = Z,U,V,W,TA1,RHO
/ 
SCHEMA POUR LA DIFFUSION DES VITESSES = 1 
SCHEMA POUR LA DIFFUSION DES TRACEURS = 1 
/ 
COEFFICIENT DE DIFFUSION HORIZONTAL DES VITESSES = 1. 
COEFFICIENT DE DIFFUSION HORIZONTAL DES TRACEURS = 1.
COEFFICIENT DE DIFFUSION VERTICAL DES TRACEURS = 0. 
COEFFICIENT DE DIFFUSION VERTICAL DES VITESSES = 0.
/ 
MODELE DE TURBULENCE VERTICAL = 1 
MODELE DE TURBULENCE HORIZONTAL = 1 
MAXIMUM D'ITERATIONS POUR LA DIFFUSION DES VITESSES = 50 
MAXIMUM D'ITERATIONS POUR LA DIFFUSION DES TRACEURS = 50 
MAXIMUM D'ITERATIONS POUR LA PROPAGATION = 50 
MAXIMUM D'ITERATIONS POUR LA VITESSE VERTICALE = 50 
NOMBRE DE TRACEURS = 1 
NOMS DES TRACEURS = TEMPERATURE
/
/LOI DE DENSITE = 1
/ LOI LINEAIRE
LOI DE DENSITE = 4
/
VALEURS INITIALES DES TRACEURS :  0.
COEFFICIENT DE DILATATION BETA POUR LES TRACEURS : 2.E-4
VALEURS DE REFERENCE DES TRACEURS : 0.
MASSE VOLUMIQUE DE REFERENCE = 999.972
LOI DE FROTTEMENT SUR LE FOND = 0
COEFFICIENT DE FROTTEMENT POUR LE FOND = 0.
STOCKAGE DES MATRICES = 3
BANCS DECOUVRANTS = NON
FILTRE LES INCONSISTANCES HYDROSTATIQUES = OUI
CONDITIONS INITIALES : 'COTE CONSTANTE'
COTE INITIALE : 0.1
/
&ETA 
&FIN 
 
