/---------------------------------------------------------------------/
/       TELEMAC 2D TEST CASE                                          /
/       Free Surface Flow in a fixed rectangular channel:             /
/       Initial bed configuration covered by ripples                  /
/---------------------------------------------------------------------/
/       AUTHORS:  Fabio Mattia - Pablo Tassi                          /
/       DATE    : 16/05/2013                                          /
/                                                                     /
/       for a longer simulation (at least 2 days), please change:     /
/       GRAPHIC PRINTOUT PERIOD                                       /
/       LISTING PRINTOUT PERIOD                                       /
/       NUMBER OF TIME STEPS	                                      /
/---------------------------------------------------------------------/
/       COMPUTER INFORMATIONS                                         /
/---------------------------------------------------------------------/
/                                                                     /
GEOMETRY FILE                     : Bar_Test_Random.slf
BOUNDARY CONDITIONS FILE          : Bar_Test_Random.cli
RESULTS FILE                      : Bar_Test_Random_r2d_T2d.slf
SISYPHE STEERING FILE             : Bar_Test_Random_Sis.cas
FORTRAN FILE                      : corfon.f
/
/---------------------------------------------------------------------/
/       GENERAL INFORMATIONS                                          /
/---------------------------------------------------------------------/
/
TITLE : 'Bars Test Case: Linear channel,bed configuration: Ripples'
COUPLING WITH   : 'SISYPHE'
COUPLING PERIOD FOR SISYPHE                     : 1
VARIABLES FOR GRAPHIC PRINTOUTS                 : 'H,U,V,Q,US'
TIME STEP                                       : 0.1
GRAPHIC PRINTOUT PERIOD                         : 10000
LISTING PRINTOUT PERIOD                         : 1000
NUMBER OF TIME STEPS                            : 10000
MASS-BALANCE                                    : YES
INFORMATION ABOUT SOLVER                        : YES
/TREATMENT OF THE LINEAR SYSTEM : 2
SOLVER : 7
/PRECONDITIONING : 2
/
/---------------------------------------------------------------------/
/       INITIAL CONDITIONS                                            /
/---------------------------------------------------------------------/
/
INITIAL CONDITIONS                              :'CONSTANT DEPTH'
INITIAL DEPTH                                   : 0.044
/
/---------------------------------------------------------------------/
/       BOUNDARY CONDITIONS                                           /
/---------------------------------------------------------------------/
/
PRESCRIBED ELEVATIONS                           : 0.044  ; 0.
PRESCRIBED FLOWRATES                            : 0.     ; 0.03
/
/---------------------------------------------------------------------/
/       PHISICAL PARAMETERS                                           /
/---------------------------------------------------------------------/
/
LAW OF BOTTOM FRICTION                          : 3
FRICTION COEFFICIENT                            : 54.25
TURBULENCE MODEL                                : 1
/
/---------------------------------------------------------------------/
