/---------------------------------------------------------------------/
/       TELEMAC 2D TEST CASE                                          /
/       Free Surface Flow in a fixed rectangular channel:             /
/       Initial bed configuration covered by ripples                  /
/---------------------------------------------------------------------/
/       AUTHOURS: Fabio Mattia - Pablo Tassi - Jean-Michel Hervouet   /
/       DATE    : 16/05/2013                                          /
/                                                                     /
/       for a longer simulation (at least 2 days), please change:     /
/       GRAPHIC PRINTOUT PERIOD                                       /
/       LISTING PRINTOUT PERIOD                                       /
/       NUMBER OF TIME STEPS	                                      /
/---------------------------------------------------------------------/
/       COMPUTER INFORMATIONS                                         /
/---------------------------------------------------------------------/
/                                                                     /
GEOMETRY FILE                     : Bar_Test_Random.slf
BOUNDARY CONDITIONS FILE          : Bar_Test_Random.cli
RESULTS FILE                      : Bar_Test_Random_r2d_T2d.slf
SISYPHE STEERING FILE             : Bar_Test_Random_Sis.cas
FORTRAN FILE                      : corfon.f
/
/---------------------------------------------------------------------/
/       GENERAL INFORMATIONS                                          /
/---------------------------------------------------------------------/
/
/PARALLEL PROCESSORS                             : 8
TITLE      :  'Bars Test Case: Linear channel,bed configuration: Ripples'
COUPLING WITH                                   : 'INTER-SISYPHE'
COUPLING PERIOD FOR SISYPHE                     : 1
VARIABLES FOR GRAPHIC PRINTOUTS                 : 'H,U,V,Q,US'
TIME STEP                                       : .1       
NUMBER OF FIRST TIME STEP FOR GRAPHIC PRINTOUTS : 144000  /1h
/GRAPHIC PRINTOUT PERIOD                         : 144000  /1h
/LISTING PRINTOUT PERIOD                         : 36000   /15min
GRAPHIC PRINTOUT PERIOD                         : 1440  /1h
LISTING PRINTOUT PERIOD                         : 360   /15min
/NUMBER OF TIME STEPS                            : 6912000 /2days
NUMBER OF TIME STEPS                            : 10000 /   
MASS-BALANCE                                    : YES
INFORMATION ABOUT SOLVER                        : YES
/TREATMENT OF THE LINEAR SYSTEM : 2 
SOLVER : 7 
/PRECONDITIONING : 2
/
/---------------------------------------------------------------------/
/       INITIAL CONDITIONS                                            /
/---------------------------------------------------------------------/
/
INITIAL CONDITIONS                              :'CONSTANT DEPTH'
INITIAL DEPTH                                   : 0.044
/
/---------------------------------------------------------------------/
/       BOUNDARY CONDITIONS                                           /
/---------------------------------------------------------------------/
/
PRESCRIBED ELEVATIONS                           : 0.044  ; 0.
PRESCRIBED FLOWRATES                            : 0.     ; 0.03
/
/---------------------------------------------------------------------/
/       PHISICAL PARAMETERS                                           /
/---------------------------------------------------------------------/
/
LAW OF BOTTOM FRICTION                          : 3
FRICTION COEFFICIENT                            : 54.25
TURBULENCE MODEL                                : 1
/
/---------------------------------------------------------------------/
