/ Evolution of an isolated bump in 2D
/ Test by Mathilde Chavatte, under supervision of Pablo Tassi and Kamal el Kadi (EDF-LNHE-LHSV)
/ References:
/ [1] Benkhaldoun, F., Sahmim, S. and Seaid, M. (2010), A two-dimensional finite volume morphodynamic model on unstructured triangular grids. Int. J. Numer. Meth. Fluids, 63: 1296–1327.
/ [2] Canastrelli A., Dumbser M., Siviglia A. and Toro E. (2010) Well-balanced high-order centered schemes on unstructured meshes for shallow water equations with fixed and mobile bed. Advances in Water Resources, 33: 291-303.   
/ [4] de Vriend H.J. (1987), 2DH mathematical modelling of morphological evolutions in shallow water. Coastal Engineering, 11: 1-27.
/ [3] Hudson, J. and Sweby, P. K. (2005), A high-resolution scheme for the equations governing 2D bed-load sediment transport. Int. J. Numer. Meth. Fluids, 47: 1085–1091.
/
/DEBUGGER : 0
/PROCESSEURS PARALLELES : 8
/
FICHIER FORTRAN : t2d_bump2d-t2d.f
FICHIER DES CONDITIONS AUX LIMITES : geo_bump2d-t2d.cli
FICHIER DE GEOMETRIE              : geo_bump2d-t2d.slf            
FICHIER DES RESULTATS             : r2d_bump2d-t2d.slf
FICHIER DES PARAMETRES DE SISYPHE : sis_bump2d-t2d.cas
/----------------------------------------------------------------------/  
/                       OPTIONS GENERALES                                 
/----------------------------------------------------------------------/  
TITRE = 'TELEMAC 2D : EVOLUTION OF AN ISOLATED 2D BUMP'  
COUPLAGE AVEC : 'INTER-SISYPHE'
PERIODE DE COUPLAGE POUR SISYPHE= 1                                                 
PAS DE TEMPS = 1
/NOMBRE DE PAS DE TEMPS = 360000 
NOMBRE DE PAS DE TEMPS = 3600
BILAN DE MASSE : OUI 
INFORMATIONS SUR LE SOLVEUR : OUI               
/PERIODE POUR LES SORTIES GRAPHIQUES = 86400
/PERIODE DE SORTIE LISTING = 36000
PERIODE POUR LES SORTIES GRAPHIQUES = 360
PERIODE DE SORTIE LISTING = 36
VARIABLES POUR LES SORTIES GRAPHIQUES : 'U,V,S,B,F,H,L' 
/----------------------------------------------------------------------/
/                      SCHEMA NUMERIQUE ET SOLVEUR
/----------------------------------------------------------------------/ 
SOLVEUR : 7 / gmres
OPTION DU SOLVEUR :3 / dimension de l'espace de Krilov
PRECISION DU SOLVEUR = 1.E-6  
IMPLICITATION POUR LA HAUTEUR = 0.6 
IMPLICITATION POUR LA VITESSE = 0.6   
DISCRETISATIONS EN ESPACE : 11 ; 11 /triangle lineaire
MASS-LUMPING SUR H : 1. / stabilité + efficacité                                                       
FORME DE LA CONVECTION = 1;5 / 1 characteristiques (u et v); 5 schema Psi conservatif (h)                        
OPTION DE SUPG         = 1;0 / 1 supg classique (u et v); 
COMPATIBILITE DU GRADIENT DE SURFACE LIBRE : 0.9 / supression d'oscillations
/
/----------------------------------------------------------------------/
/                    EQUATIONS ET PARAMETRES
/----------------------------------------------------------------------/              
MASSE VOLUMIQUE DE L'EAU = 1000
LOI DE FROTTEMENT SUR LE FOND = 3 /formule de strickler  
COEFFICIENT DE FROTTEMENT = 50.                                
MODELE DE TURBULENCE = 1 /viscosite constante
COEFFICIENT DE DIFFUSION DES VITESSES = 1.E-6  
EQUATIONS : 'SAINT-VENANT EF'        
/
/----------------------------------------------------------------------/
/               CONDITIONS INITIALES ET AUX LIMITES
/----------------------------------------------------------------------/  
CONDITIONS INITIALES : 'COTE CONSTANTE'
COTE INITIALE = 10.0
DEBITS IMPOSES : 10000.  ; 10000.
COTES IMPOSEES = 10. ; 0.                            
/----------------------------------------------------------------------/  
&FIN                                                                    
