STOCKAGE DES MATRICES : 3
/
/  Tourne en 1071 s sur HP C3700      5.5  JMH 15/12/2004
/  Tourne en 1022 s sur HP C3700      5.6  JMH 24/08/2005
/  Tourne en  758 s sur HP C3700      5.6  JMH 27/09/2005 (segments)
/
/  Tourne en  552 s sur DELL 2.8 GHz  5.6  JMH 16/12/2005
/
/  28/02/2006 : pas de temps 0.02 marche aussi
/
/  équivalent au cas  BUMPRES T2D
/
/  Désormais avec :
/
PRESSION DYNAMIQUE DANS L'EQUATION D'ONDE : OUI
/
/  921 s sur HP C3700  5.7  JMH 13/02/2007 (p. dynamique)
/ 2415 s Nag
/  676 s Dell
/
/  950 s sur HP C3700  5.8  JMH 16/07/2008
/ 2417 s Nag
/  680 s Dell
/
/  915 s sur  HP C3700  5.9  JMH 17/10/2008
/ 2364 s Nag  HP C3700  5.9  JMH 21/10/2008
/  677 s Dell
/
/**********************************************************************/
/
TITRE = 'TELEMAC 3D : NON HYDROSTATIC HYDRAULIC JUMP'
/
FICHIER FORTRAN                    : t3d_bump.f
FICHIER DES CONDITIONS AUX LIMITES : geo_bump.cli
FICHIER DE GEOMETRIE               : geo_bump.slf
FICHIER DES RESULTATS 3D           : r3d_bump.slf
FICHIER DES RESULTATS 2D           : r2d_bump.slf
FICHIER DE REFERENCE               : f3d_bump.slf     VALIDATION : OUI
/
/----------------------------------------------------------------------/
/     OPTIONS GENERALES
/----------------------------------------------------------------------/
/
NOMBRE DE PAS DE TEMPS = 5000
PERIODE POUR LES SORTIES GRAPHIQUES = 500
PERIODE POUR LES SORTIES LISTING    = 100
PAS DE TEMPS = 0.01
NOMBRE DE PLANS HORIZONTAUX = 5
/
CONDITIONS INITIALES : 'COTE CONSTANTE'
COTE INITIALE : 0.4
DEBITS IMPOSES : 0.;2.
COTES IMPOSEES : 0.4;0.
/
BANCS DECOUVRANTS = NON
/
VARIABLES POUR LES SORTIES GRAPHIQUES 2D = 'U,V,H,B,S'
VARIABLES POUR LES SORTIES GRAPHIQUES 3D = 'Z,U,V,W,DP'
BILAN DE MASSE = OUI
INFORMATION SUR LE BILAN DE MASSE A CHAQUE SORTIE LISTING = OUI
/
/-----------------------
/     CONVECTION-DIFFUSION
/-----------------------
/ 
SCHEMA POUR LA CONVECTION DES VITESSES = 1
SCHEMA POUR LA CONVECTION DE LA HAUTEUR = 5
/
MODELE DE TURBULENCE HORIZONTAL = 1
/
MODELE DE TURBULENCE VERTICAL = 2
COEFFICIENT DE DIFFUSION VERTICAL DES VITESSES   = 1.D-6
/
/----------------------------/
/     TERMES SOURCES
/----------------------------/
/
COEFFICIENT DE FROTTEMENT POUR LE FOND = 50.
LOI DE FROTTEMENT SUR LE FOND = 3
/
/----------------------------/
/     PROPAGATION
/----------------------------/
/
MAXIMUM D'ITERATIONS POUR LA PROPAGATION = 200
MAXIMUM D'ITERATIONS POUR LA VITESSE VERTICALE = 50
MAXIMUM D'ITERATIONS POUR LA DIFFUSION DES VITESSES = 200
SOLVEUR POUR LA VITESSE VERTICALE=7
SOLVEUR POUR LA PROPAGATION=7
PRECISION POUR LA DIFFUSION DES VITESSES = 1.E-5
PRECONDITIONNEMENT POUR LA DIFFUSION DES VITESSES : 34
PRECISION POUR LA VITESSE VERTICALE = 1.E-5
PRECISION POUR LA PROPAGATION = 1.E-6
/
IMPLICITATION POUR LA HAUTEUR   = 0.6 
IMPLICITATION POUR LES VITESSES = 0.6
SOLVEUR POUR LA DIFFUSION DES VITESSES = 1
/
/ NON HYDROSTATIQUE
/ 
VERSION NON-HYDROSTATIQUE : OUI   
MASS-LUMPING POUR LA HAUTEUR : 1.
/
PROJECTION COHERENTE : NO
/
/  SYSTEMES LINEAIRES DE L'OPTION NON-HYDROSTATIQUE
/
SOLVEUR POUR PPE = 6  PRECISION POUR PPE = 1.E-5
PRECONDITIONNEMENT POUR PPE = 2         
MAXIMUM D'ITERATIONS POUR PPE = 250
/
OPTION POUR L'ETAPE HYDROSTATIQUE : 2
SOLVEUR POUR LA PROPAGATION = 1
/
&ETA
&FIN
