/DEBUGGER : 1
PROCESSEURS PARALLELES : 8
/
/
/  Note : fichier des flotteurs au format Tecplot
/
/
FICHIER FORTRAN                    : t3d_flotteurs.f
FICHIER DES CONDITIONS AUX LIMITES : geo_flotteurs.cli
FICHIER DE GEOMETRIE               : geo_flotteurs.slf
FICHIER DES RESULTATS 3D           : r3d_flotteurs.slf
FICHIER DES RESULTATS 2D           : r2d_flotteurs.slf
FICHIER DES FLOTTEURS              : flo.dat
SUITE 2D : OUI
REMISE A ZERO DU TEMPS : OUI
FICHIER DE DONNEES BINAIRE 1       : restart_2d.slf 
/FICHIER DE REFERENCE               : f3d
/VALIDATION : OUI
/----------------------------------------------------------------------/ 
/
COMPATIBILITE DU GRADIENT DE SURFACE LIBRE=0.75
BILAN DE MASSE : OUI
IMPLICITATION POUR LA DIFFUSION : 1.
SOLVEUR POUR LA PROPAGATION : 1
BANCS DECOUVRANTS : OUI
TRAITEMENT DES HAUTEURS NEGATIVES : 2
TRAITEMENT DES FLUX AUX FRONTIERES : 2;2
NOMBRE DE PLANS HORIZONTAUX = 10
/  
TITRE : 'TELEMAC-3D - essai de flotteurs'
/
PAS DE TEMPS = 5. NOMBRE DE PAS DE TEMPS = 1440
PERIODE POUR LES SORTIES GRAPHIQUES = 36
PERIODE POUR LES SORTIES LISTING = 36                             
VARIABLES POUR LES SORTIES GRAPHIQUES 2D = 'U,V,H,B,S'
VARIABLES POUR LES SORTIES GRAPHIQUES 3D = 'Z,U,V,W'
LOI DE FROTTEMENT SUR LE FOND = 3
COEFFICIENT DE FROTTEMENT POUR LE FOND = 55.
/   
COEFFICIENT DE DIFFUSION HORIZONTAL DES VITESSES = 1.E-2                                                 
MODELE DE TURBULENCE HORIZONTAL = 1
/
MODELE DE TURBULENCE VERTICAL = 2
COEFFICIENT DE DIFFUSION VERTICAL DES VITESSES   = 1.D-6
/
IMPLICITATION POUR LA HAUTEUR = 1. 
/CONDITIONS INITIALES : 'COTE CONSTANTE'                                     
COTES IMPOSEES       :  265.;0.
DEBITS IMPOSES       :  0.;700.
/
/ NON HYDROSTATIQUE
/ 
VERSION NON-HYDROSTATIQUE : OUI   
STOCKAGE DES MATRICES : 3
MASS-LUMPING POUR LA HAUTEUR : 1.
MASS-LUMPING POUR LA DIFFUSION : 1.
/
PROJECTION COHERENTE  : NO
/
/  SYSTEMES LINEAIRES DE L'OPTION NON-HYDROSTATIQUE
/
SOLVEUR POUR PPE = 1  PRECISION POUR PPE = 1.E-5
PRECONDITIONNEMENT POUR PPE = 2         
MAXIMUM D'ITERATIONS POUR PPE = 100
/
SCHEMA POUR LA CONVECTION DES VITESSES : 1
OPTION DE SUPG : 0;0;0;0
/
TRAITEMENT DES HAUTEURS NEGATIVES : 2
STOCKAGE DES MATRICES : 3 
PRECISION POUR LA PROPAGATION : 1.E-6
/
NOMBRE DE FLOTTEURS                : 100
PERIODE POUR LES SORTIES DE FLOTTEURS : 36
/
/ DEBUGGAGE
/
/NOMBRE DE PAS DE TEMPS = 324
/NOMBRE DE PAS DE TEMPS = 297
/PERIODE POUR LES SORTIES GRAPHIQUES = 9
/PERIODE POUR LES SORTIES LISTING = 9
/PERIODE POUR LES SORTIES DE FLOTTEURS : 9
/
&FIN                                                             
