PARALLEL PROCESSORS : 0
MATRIX STORAGE : 3
/
/   HP C3700 : 960 s 5.5 JMH  17/12/2004
/   HP C3700 : 384 s 5.5 JMH  04/03/2005 (nouvelle diffusion
/                                        + quelques reglages)
/   HP C3700 : 314 s 5.6 JMH  30/09/2005 (segments)
/   HP C3700 compilateur HP      : 316 s 5.7 JMH  14/02/2007 (Saint-Valentin)
/   HP C3700 compilateur Nag     : 631 s 5.7 JMH  14/02/2007 
/   Dell 2.8 MHz compilateur pgi : 229 s 5.7 JMH  23/04/2007 (differences)
/
/   HP C3700 compilateur HP      : 311 s 5.8 JMH  03/01/2008
/   HP C3700 compilateur Nag     : 644 s 5.8 JMH  18/01/2008  
/   Dell 2.8 MHz compilateur pgi : 228 s 5.8 JMH  03/01/2008 
/
/   HP C3700 compilateur HP      : 161 s 5.9 JMH  20/10/2008 (MASKTO+wave eqn)
/   HP C3700 compilateur Nag     : ??? s 5.9 JMH    
/   Dell 2.8 MHz compilateur pgi : 150 s 5.9 JMH  20/10/2008
/
/---------------------------------------
/        Wesel-Xanten test case
/---------------------------------------
/
FORTRAN FILE             : t3d_wesel.f
GEOMETRY FILE            : geo_wesel.slf
BOUNDARY CONDITIONS FILE : geo_wesel.cli
3D RESULT FILE           : r3d_wesel.slf
2D RESULT FILE           : r2d_wesel.slf
LIQUID BOUNDARIES FILE   : t3d_wesel.qsl
FORMATTED DATA FILE 1    : fo1_wesel.txt
REFERENCE FILE           : f3d_wesel.slf
VALIDATION               : YES
/
TIME STEP =100. NUMBER OF TIME STEPS = 432
/
GRAPHIC PRINTOUT PERIOD = 144 LISTING PRINTOUT PERIOD =20
NUMBER OF HORIZONTAL LEVELS = 3
INITIAL CONDITIONS : SPECIAL
PRESCRIBED FLOWRATES = 1061.;0.0
PRESCRIBED ELEVATIONS = 0.0;11.82
VELOCITY PROFILES = 3;0
/
MASS-LUMPING FOR DEPTH : 1.
MASS-LUMPING FOR VELOCITIES : 1.
/
SCHEME FOR ADVECTION OF VELOCITIES = 1
/
PRECONDITIONING FOR DIFFUSION OF VELOCITIES = 34
MASS-LUMPING FOR DIFFUSION : 1.
SOLVER FOR DIFFUSION OF VELOCITIES = 1
/
COEFFICIENT FOR HORIZONTAL DIFFUSION OF VELOCITIES  = 0.
COEFFICIENT FOR VERTICAL DIFFUSION OF VELOCITIES    = 0.1
/
IMPLICITATION FOR DEPTH = 1.0 
IMPLICITATION FOR VELOCITIES = 1.0
/
TITLE = 'Wesel-Xanten'
VARIABLES FOR 2D GRAPHIC PRINTOUTS = S,U,V,H
VARIABLES FOR 3D GRAPHIC PRINTOUTS = Z,U,V,W
/
MASS-BALANCE : YES
INFORMATION ABOUT MASS-BALANCE FOR EACH LISTING PRINTOUT : YES
/
/  FIRST INTEGER : systeme tronque ou complet
/ SECOND INTEGER : equations primitives ou equation d'onde 
 TELEMAC-2D OPTIONS : 1;2    SOLVER FOR PROPAGATION : 1
 ACCURACY FOR PROPAGATION : 1.E-4
/TELEMAC-2D OPTIONS : 2;1    SOLVER FOR PROPAGATION : 7
/ 
TIDAL FLATS : YES
OPTION FOR THE TREATMENT OF TIDAL FLATS : 2
/
/OPTION FOR THE HYDROSTATIC STEP : 1  
 OPTION FOR THE HYDROSTATIC STEP : 2  SOLVER FOR PROPAGATION : 1
/IMPLICITATION FOR DIFFUSION : 2.
/
&ETA
