COMPATIBILITE DU GRADIENT DE SURFACE LIBRE=0.75
BILAN DE MASSE : OUI
IMPLICITATION POUR LA DIFFUSION : 1.
/OPTION POUR L'ETAPE HYDROSTATIQUE : 1
OPTION POUR L'ETAPE HYDROSTATIQUE : 2 SOLVEUR POUR LA PROPAGATION : 1
BANCS DECOUVRANTS : NON
/
/  SUR HPC3700  : version 5.4 : 641 s
/  SUR HPC3700  : version 5.5 : 668 s  13/12/04
/  SUR HPC3700  : version 5.5 : 574 s  04/03/05 (nouvelle diffusion)
/  SUR HPC3700  : version 5.5 : 529 s  04/03/05 (solveur PPE=1)
/  SUR HPC3700  : version 5.6 : 438 s  24/08/05 
/  SUR HPC3700  : version 5.6 : 403 s  25/08/05  BANDEC=.FALSE.
/  SUR HPC3700  : version 5.6 : 398 s  29/08/05 
/  SUR HPC3700  : version 5.6 : 287 s  27/09/05 (segments) 
/  SUR HPC3700  : version 5.7 : 281 s  07/02/07 (Nag: ??? s,Dell:191 s)
/  SUR HPC3700  : version 5.8 : 278 s  19/12/07 (Nag: 682 s,Dell:191 s)
/  SUR HPC3700  : version 5.9 : 293 s  17/10/08 (Nag: 725 s,Dell:??? s)
/
FICHIER DES CONDITIONS AUX LIMITES : geo_piledepon.cli
FICHIER DE GEOMETRIE               : geo_piledepon.slf
FICHIER DES FRONTIERES LIQUIDES    : t3d_piledepon.qsl
FICHIER DES RESULTATS 3D           : r3d_piledepon-nonhydro.slf
FICHIER DES RESULTATS 2D           : r2d_piledepon-nonhydro.slf
/
FICHIER DE REFERENCE               : f3d_piledepon-nonhydro.slf
VALIDATION : OUI
/----------------------------------------------------------------------/ 
/
NOMBRE DE PLANS HORIZONTAUX = 6
/  
TITRE = 'TELEMAC 3D : RIVIERE AVEC DEUX PILES DE PONT$'  
PAS DE TEMPS = 0.1 NOMBRE DE PAS DE TEMPS = 800
PERIODE POUR LES SORTIES GRAPHIQUES = 100
PERIODE POUR LES SORTIES LISTING = 10                             
VARIABLES POUR LES SORTIES GRAPHIQUES 2D = 'U,V,H,B,S'
VARIABLES POUR LES SORTIES GRAPHIQUES 3D = Z,U,V,W
LOI DE FROTTEMENT SUR LE FOND = 3    
COEFFICIENT DE FROTTEMENT POUR LE FOND = 40.
/    
COEFFICIENT DE DIFFUSION HORIZONTAL DES VITESSES = 0.005                                                 
MODELE DE TURBULENCE HORIZONTAL = 1
/
MODELE DE TURBULENCE VERTICAL = 2
COEFFICIENT DE DIFFUSION VERTICAL DES VITESSES   = 1.D-6
/
IMPLICITATION POUR LA HAUTEUR = 0.6 
CONDITIONS INITIALES : 'COTE NULLE'                                     
DEBITS IMPOSES : 0.;62.     COTES IMPOSEES : 0.;0. 
/
/ OPTIONS POUR L'APPEL DE TELEMAC-2D
/ EQUATION D'ONDE + GRADIENT CONJUGUE
/ OPTIONS POUR TELEMAC-2D : 1;2  SOLVEUR POUR LA PROPAGATION : 1
/ OPTION QUASI-BULLE : OUI
/  
/ NON HYDROSTATIQUE
/ 
VERSION NON-HYDROSTATIQUE : OUI   
/
STOCKAGE DES MATRICES : 3
MASS-LUMPING POUR LA HAUTEUR : 1.
/
PROJECTION COHERENTE  : NO
/
/  SYSTEMES LINEAIRES DE L'OPTION NON-HYDROSTATIQUE
/
PRECONDITIONNEMENT POUR LA PROJECTION = 2
SOLVEUR POUR LA PROJECTION = 7  PRECISION POUR LA PROJECTION = 1.E-5
MAXIMUM D'ITERATIONS POUR LA PROJECTION = 100
/
SOLVEUR POUR PPE = 1  PRECISION POUR PPE = 1.E-5
PRECONDITIONNEMENT POUR PPE = 2         
MAXIMUM D'ITERATIONS POUR PPE = 100
/
&FIN                                                                     
