/
/  FICHIER DE DECLARATION DES MOTS CLES DU CODE TELEMAC-3D                              
/
/  HP C3700 compilateur HP       :   4 s    version 5.7  14/02/2007
/  HP C3700 compilateur Nag      :   5 s    version 5.7  20/04/2007
/  Dell 2.8 MHz compilateur pgi  :   1 s    version 5.7  20/04/2007
/
/  HP C3700 compilateur HP       :   1 s    version 5.8  26/12/2007
/  HP C3700 compilateur Nag      :   1 s    version 5.8  16/01/2008
/  Dell 2.8 MHz compilateur pgi  :   0 s    version 5.8  03/01/2008
/
/  HP C3700 compilateur HP       :   1 s    version 5.9  17/10/2008
/  HP C3700 compilateur Nag      :   ? s    version 5.9  
/  Dell 2.8 MHz compilateur pgi  :   1 s    version 5.9  17/10/2008
/
/  HP C3700 compilateur HP         : 2 s    version 6.2  30/05/2012
/
/----------------------------------------------------------------------/
/      POUR LE FICHIER CNTL
/----------------------------------------------------------------------/
/
TITRE = 'TELEMAC 3D : CANAL'
/
FICHIER DES CONDITIONS AUX LIMITES : geo_pluie.cli
FICHIER DE GEOMETRIE               : geo_pluie.slf
FICHIER DES RESULTATS 3D           : r3d_pluie.slf
FICHIER DES RESULTATS 2D           : r2d_pluie.slf
FICHIER DE REFERENCE               : f3d_pluie.slf
VALIDATION : OUI
/
/----------------------------------------------------------------------/
/     OPTIONS GENERALES
/----------------------------------------------------------------------/
/
PROCESSEURS PARALLELES : 0
/
PLUIE OU EVAPORATION : OUI
PLUIE OU EVAPORATION EN MM PAR JOUR : 864000.
/
/ ESSAI
/ VALEURS DES TRACEURS DANS LA PLUIE : 32.
/
/
STOCKAGE DES MATRICES : 3
/
NOMBRE DE PAS DE TEMPS = 3   PAS DE TEMPS = 1.
PERIODE POUR LES SORTIES GRAPHIQUES = 1
PERIODE POUR LES SORTIES LISTING    = 1
NOMBRE DE PLANS HORIZONTAUX = 21
/
CONDITIONS INITIALES : 'HAUTEUR CONSTANTE'   HAUTEUR INITIALE : 10.
/
VARIABLES POUR LES SORTIES GRAPHIQUES 2D = U,V,H,B,S,RB,EF,DP,US
VARIABLES POUR LES SORTIES GRAPHIQUES 3D = Z,U,V,W,TA1
BILAN DE MASSE = OUI
INFORMATION SUR LE BILAN DE MASSE A CHAQUE SORTIE LISTING = OUI
/
/-------------------------
/  CONVECTION-DIFFUSION
/-------------------------
/ 
SCHEMA POUR LA CONVECTION DES VITESSES = 1
SCHEMA POUR LA CONVECTION DES TRACEURS : 5
/
 MODELE DE TURBULENCE HORIZONTAL = 1
 COEFFICIENT DE DIFFUSION HORIZONTAL DES VITESSES = 0.1D0
 MODELE DE TURBULENCE VERTICAL = 2
 MODELE DE LONGUEUR DE MELANGE : 3
 COEFFICIENT DE DIFFUSION VERTICAL DES VITESSES   = 1.D-6
/
PRECONDITIONNEMENT POUR LA DIFFUSION DES VITESSES = 7
SOLVEUR POUR LA DIFFUSION DES VITESSES = 1
/
/----------------------------/
/     TERMES SOURCES
/----------------------------/
/
 COEFFICIENT DE FROTTEMENT POUR LE FOND = 0.0162  
 LOI DE FROTTEMENT SUR LE FOND = 5 
/
/----------------------------/
/     PROPAGATION
/----------------------------/
MAXIMUM D'ITERATIONS POUR LA PROPAGATION = 200
MAXIMUM D'ITERATIONS POUR LA VITESSE VERTICALE = 50
MAXIMUM D'ITERATIONS POUR LA DIFFUSION DES VITESSES = 200
SOLVEUR POUR LA VITESSE VERTICALE=7
PRECISION POUR LA DIFFUSION DES VITESSES =1.E-6
/
PRECISION POUR LA VITESSE VERTICALE = 1.E-6
PRECISION POUR LA PROPAGATION = 1.E-6
/
IMPLICITATION POUR LA HAUTEUR = 0.6 
IMPLICITATION POUR LES VITESSES = 0.6 
PRECONDITIONNEMENT POUR LA PROPAGATION : 2
SOLVEUR POUR LA PROPAGATION : 8
/
/----------------------------/
/          SEDIMENT
/----------------------------/
/
NOMBRE DE TRACEURS : 1 
NOMS DES TRACEURS : 'SALINITE        KG/M3           '
VALEURS DE REFERENCE DES TRACEURS : 0.
VALEURS INITIALES DES TRACEURS : 32.
SOLVEUR POUR LA DIFFUSION DES TRACEURS = 8
/
COEFFICIENT DE DIFFUSION VERTICAL DES TRACEURS = 1.E-4
/
LOI DE FROTTEMENT SUR LES PAROIS LATERALES : 0
COEFFICIENT DE FROTTEMENT POUR LES PAROIS LATERALES : 1.
/
MASS-LUMPING POUR LA HAUTEUR : 1.
MASS-LUMPING POUR LES VITESSES : 1.
MASS-LUMPING POUR LA DIFFUSION : 1.
/
/&ETA
&FIN
